* NGSPICE file created from LUT4AB.ext - technology: sky130A

* Black-box entry subcircuit for sky130_fd_sc_hd__fill_1 abstract view
.subckt sky130_fd_sc_hd__fill_1 VGND VNB VPB VPWR
.ends

* Black-box entry subcircuit for sky130_fd_sc_hd__tapvpwrvgnd_1 abstract view
.subckt sky130_fd_sc_hd__tapvpwrvgnd_1 VGND VPWR
.ends

* Black-box entry subcircuit for sky130_fd_sc_hd__clkbuf_2 abstract view
.subckt sky130_fd_sc_hd__clkbuf_2 A VGND VNB VPB VPWR X
.ends

* Black-box entry subcircuit for sky130_fd_sc_hd__fill_2 abstract view
.subckt sky130_fd_sc_hd__fill_2 VGND VNB VPB VPWR
.ends

* Black-box entry subcircuit for sky130_fd_sc_hd__mux4_1 abstract view
.subckt sky130_fd_sc_hd__mux4_1 A0 A1 A2 A3 S0 S1 VGND VNB VPB VPWR X
.ends

* Black-box entry subcircuit for sky130_ef_sc_hd__decap_12 abstract view
.subckt sky130_ef_sc_hd__decap_12 VGND VNB VPB VPWR
.ends

* Black-box entry subcircuit for sky130_fd_sc_hd__decap_3 abstract view
.subckt sky130_fd_sc_hd__decap_3 VGND VNB VPB VPWR
.ends

* Black-box entry subcircuit for sky130_fd_sc_hd__clkbuf_1 abstract view
.subckt sky130_fd_sc_hd__clkbuf_1 A VGND VNB VPB VPWR X
.ends

* Black-box entry subcircuit for sky130_fd_sc_hd__decap_8 abstract view
.subckt sky130_fd_sc_hd__decap_8 VGND VNB VPB VPWR
.ends

* Black-box entry subcircuit for sky130_fd_sc_hd__dlxbp_1 abstract view
.subckt sky130_fd_sc_hd__dlxbp_1 D GATE VGND VNB VPB VPWR Q Q_N
.ends

* Black-box entry subcircuit for sky130_fd_sc_hd__decap_4 abstract view
.subckt sky130_fd_sc_hd__decap_4 VGND VNB VPB VPWR
.ends

* Black-box entry subcircuit for sky130_fd_sc_hd__buf_2 abstract view
.subckt sky130_fd_sc_hd__buf_2 A VGND VNB VPB VPWR X
.ends

* Black-box entry subcircuit for sky130_fd_sc_hd__clkbuf_4 abstract view
.subckt sky130_fd_sc_hd__clkbuf_4 A VGND VNB VPB VPWR X
.ends

* Black-box entry subcircuit for sky130_fd_sc_hd__conb_1 abstract view
.subckt sky130_fd_sc_hd__conb_1 VGND VNB VPB VPWR HI LO
.ends

* Black-box entry subcircuit for sky130_fd_sc_hd__o21ai_1 abstract view
.subckt sky130_fd_sc_hd__o21ai_1 A1 A2 B1 VGND VNB VPB VPWR Y
.ends

* Black-box entry subcircuit for sky130_fd_sc_hd__decap_6 abstract view
.subckt sky130_fd_sc_hd__decap_6 VGND VNB VPB VPWR
.ends

* Black-box entry subcircuit for sky130_fd_sc_hd__inv_2 abstract view
.subckt sky130_fd_sc_hd__inv_2 A VGND VNB VPB VPWR Y
.ends

* Black-box entry subcircuit for sky130_fd_sc_hd__mux4_2 abstract view
.subckt sky130_fd_sc_hd__mux4_2 A0 A1 A2 A3 S0 S1 VGND VNB VPB VPWR X
.ends

* Black-box entry subcircuit for sky130_fd_sc_hd__buf_1 abstract view
.subckt sky130_fd_sc_hd__buf_1 A VGND VNB VPB VPWR X
.ends

* Black-box entry subcircuit for sky130_fd_sc_hd__dfxtp_1 abstract view
.subckt sky130_fd_sc_hd__dfxtp_1 CLK D VGND VNB VPB VPWR Q
.ends

* Black-box entry subcircuit for sky130_fd_sc_hd__o21ai_4 abstract view
.subckt sky130_fd_sc_hd__o21ai_4 A1 A2 B1 VGND VNB VPB VPWR Y
.ends

* Black-box entry subcircuit for sky130_fd_sc_hd__nand2_1 abstract view
.subckt sky130_fd_sc_hd__nand2_1 A B VGND VNB VPB VPWR Y
.ends

* Black-box entry subcircuit for sky130_fd_sc_hd__buf_4 abstract view
.subckt sky130_fd_sc_hd__buf_4 A VGND VNB VPB VPWR X
.ends

* Black-box entry subcircuit for sky130_fd_sc_hd__diode_2 abstract view
.subckt sky130_fd_sc_hd__diode_2 DIODE VGND VNB VPB VPWR
.ends

* Black-box entry subcircuit for sky130_fd_sc_hd__o21ai_2 abstract view
.subckt sky130_fd_sc_hd__o21ai_2 A1 A2 B1 VGND VNB VPB VPWR Y
.ends

* Black-box entry subcircuit for sky130_fd_sc_hd__a22oi_1 abstract view
.subckt sky130_fd_sc_hd__a22oi_1 A1 A2 B1 B2 VGND VNB VPB VPWR Y
.ends

* Black-box entry subcircuit for sky130_fd_sc_hd__clkbuf_16 abstract view
.subckt sky130_fd_sc_hd__clkbuf_16 A VGND VNB VPB VPWR X
.ends

* Black-box entry subcircuit for sky130_fd_sc_hd__a21boi_1 abstract view
.subckt sky130_fd_sc_hd__a21boi_1 A1 A2 B1_N VGND VNB VPB VPWR Y
.ends

* Black-box entry subcircuit for sky130_fd_sc_hd__or2b_1 abstract view
.subckt sky130_fd_sc_hd__or2b_1 A B_N VGND VNB VPB VPWR X
.ends

* Black-box entry subcircuit for sky130_fd_sc_hd__a21oi_1 abstract view
.subckt sky130_fd_sc_hd__a21oi_1 A1 A2 B1 VGND VNB VPB VPWR Y
.ends

* Black-box entry subcircuit for sky130_fd_sc_hd__buf_8 abstract view
.subckt sky130_fd_sc_hd__buf_8 A VGND VNB VPB VPWR X
.ends

* Black-box entry subcircuit for sky130_fd_sc_hd__buf_6 abstract view
.subckt sky130_fd_sc_hd__buf_6 A VGND VNB VPB VPWR X
.ends

* Black-box entry subcircuit for sky130_fd_sc_hd__buf_12 abstract view
.subckt sky130_fd_sc_hd__buf_12 A VGND VNB VPB VPWR X
.ends

* Black-box entry subcircuit for sky130_fd_sc_hd__clkbuf_8 abstract view
.subckt sky130_fd_sc_hd__clkbuf_8 A VGND VNB VPB VPWR X
.ends

* Black-box entry subcircuit for sky130_fd_sc_hd__a21oi_2 abstract view
.subckt sky130_fd_sc_hd__a21oi_2 A1 A2 B1 VGND VNB VPB VPWR Y
.ends

* Black-box entry subcircuit for sky130_fd_sc_hd__dlymetal6s2s_1 abstract view
.subckt sky130_fd_sc_hd__dlymetal6s2s_1 A VGND VNB VPB VPWR X
.ends

* Black-box entry subcircuit for sky130_fd_sc_hd__dlygate4sd1_1 abstract view
.subckt sky130_fd_sc_hd__dlygate4sd1_1 A VGND VNB VPB VPWR X
.ends

.subckt LUT4AB Ci Co E1BEG[0] E1BEG[1] E1BEG[2] E1BEG[3] E1END[0] E1END[1] E1END[2]
+ E1END[3] E2BEG[0] E2BEG[1] E2BEG[2] E2BEG[3] E2BEG[4] E2BEG[5] E2BEG[6] E2BEG[7]
+ E2BEGb[0] E2BEGb[1] E2BEGb[2] E2BEGb[3] E2BEGb[4] E2BEGb[5] E2BEGb[6] E2BEGb[7]
+ E2END[0] E2END[1] E2END[2] E2END[3] E2END[4] E2END[5] E2END[6] E2END[7] E2MID[0]
+ E2MID[1] E2MID[2] E2MID[3] E2MID[4] E2MID[5] E2MID[6] E2MID[7] E6BEG[0] E6BEG[10]
+ E6BEG[11] E6BEG[1] E6BEG[2] E6BEG[3] E6BEG[4] E6BEG[5] E6BEG[6] E6BEG[7] E6BEG[8]
+ E6BEG[9] E6END[0] E6END[10] E6END[11] E6END[1] E6END[2] E6END[3] E6END[4] E6END[5]
+ E6END[6] E6END[7] E6END[8] E6END[9] EE4BEG[0] EE4BEG[10] EE4BEG[11] EE4BEG[12] EE4BEG[13]
+ EE4BEG[14] EE4BEG[15] EE4BEG[1] EE4BEG[2] EE4BEG[3] EE4BEG[4] EE4BEG[5] EE4BEG[6]
+ EE4BEG[7] EE4BEG[8] EE4BEG[9] EE4END[0] EE4END[10] EE4END[11] EE4END[12] EE4END[13]
+ EE4END[14] EE4END[15] EE4END[1] EE4END[2] EE4END[3] EE4END[4] EE4END[5] EE4END[6]
+ EE4END[7] EE4END[8] EE4END[9] FrameData[0] FrameData[10] FrameData[11] FrameData[12]
+ FrameData[13] FrameData[14] FrameData[15] FrameData[16] FrameData[17] FrameData[18]
+ FrameData[19] FrameData[1] FrameData[20] FrameData[21] FrameData[22] FrameData[23]
+ FrameData[24] FrameData[25] FrameData[26] FrameData[27] FrameData[28] FrameData[29]
+ FrameData[2] FrameData[30] FrameData[31] FrameData[3] FrameData[4] FrameData[5]
+ FrameData[6] FrameData[7] FrameData[8] FrameData[9] FrameData_O[0] FrameData_O[10]
+ FrameData_O[11] FrameData_O[12] FrameData_O[13] FrameData_O[14] FrameData_O[15]
+ FrameData_O[16] FrameData_O[17] FrameData_O[18] FrameData_O[19] FrameData_O[1] FrameData_O[20]
+ FrameData_O[21] FrameData_O[22] FrameData_O[23] FrameData_O[24] FrameData_O[25]
+ FrameData_O[26] FrameData_O[27] FrameData_O[28] FrameData_O[29] FrameData_O[2] FrameData_O[30]
+ FrameData_O[31] FrameData_O[3] FrameData_O[4] FrameData_O[5] FrameData_O[6] FrameData_O[7]
+ FrameData_O[8] FrameData_O[9] FrameStrobe[0] FrameStrobe[10] FrameStrobe[11] FrameStrobe[12]
+ FrameStrobe[13] FrameStrobe[14] FrameStrobe[15] FrameStrobe[16] FrameStrobe[17]
+ FrameStrobe[18] FrameStrobe[19] FrameStrobe[1] FrameStrobe[2] FrameStrobe[3] FrameStrobe[4]
+ FrameStrobe[5] FrameStrobe[6] FrameStrobe[7] FrameStrobe[8] FrameStrobe[9] FrameStrobe_O[0]
+ FrameStrobe_O[10] FrameStrobe_O[11] FrameStrobe_O[12] FrameStrobe_O[13] FrameStrobe_O[14]
+ FrameStrobe_O[15] FrameStrobe_O[16] FrameStrobe_O[17] FrameStrobe_O[18] FrameStrobe_O[19]
+ FrameStrobe_O[1] FrameStrobe_O[2] FrameStrobe_O[3] FrameStrobe_O[4] FrameStrobe_O[5]
+ FrameStrobe_O[6] FrameStrobe_O[7] FrameStrobe_O[8] FrameStrobe_O[9] N1BEG[0] N1BEG[1]
+ N1BEG[2] N1BEG[3] N1END[0] N1END[1] N1END[2] N1END[3] N2BEG[0] N2BEG[1] N2BEG[2]
+ N2BEG[3] N2BEG[4] N2BEG[5] N2BEG[6] N2BEG[7] N2BEGb[0] N2BEGb[1] N2BEGb[2] N2BEGb[3]
+ N2BEGb[4] N2BEGb[5] N2BEGb[6] N2BEGb[7] N2END[0] N2END[1] N2END[2] N2END[3] N2END[4]
+ N2END[5] N2END[6] N2END[7] N2MID[0] N2MID[1] N2MID[2] N2MID[3] N2MID[4] N2MID[5]
+ N2MID[6] N2MID[7] N4BEG[0] N4BEG[10] N4BEG[11] N4BEG[12] N4BEG[13] N4BEG[14] N4BEG[15]
+ N4BEG[1] N4BEG[2] N4BEG[3] N4BEG[4] N4BEG[5] N4BEG[6] N4BEG[7] N4BEG[8] N4BEG[9]
+ N4END[0] N4END[10] N4END[11] N4END[12] N4END[13] N4END[14] N4END[15] N4END[1] N4END[2]
+ N4END[3] N4END[4] N4END[5] N4END[6] N4END[7] N4END[8] N4END[9] NN4BEG[0] NN4BEG[10]
+ NN4BEG[11] NN4BEG[12] NN4BEG[13] NN4BEG[14] NN4BEG[15] NN4BEG[1] NN4BEG[2] NN4BEG[3]
+ NN4BEG[4] NN4BEG[5] NN4BEG[6] NN4BEG[7] NN4BEG[8] NN4BEG[9] NN4END[0] NN4END[10]
+ NN4END[11] NN4END[12] NN4END[13] NN4END[14] NN4END[15] NN4END[1] NN4END[2] NN4END[3]
+ NN4END[4] NN4END[5] NN4END[6] NN4END[7] NN4END[8] NN4END[9] S1BEG[0] S1BEG[1] S1BEG[2]
+ S1BEG[3] S1END[0] S1END[1] S1END[2] S1END[3] S2BEG[0] S2BEG[1] S2BEG[2] S2BEG[3]
+ S2BEG[4] S2BEG[5] S2BEG[6] S2BEG[7] S2BEGb[0] S2BEGb[1] S2BEGb[2] S2BEGb[3] S2BEGb[4]
+ S2BEGb[5] S2BEGb[6] S2BEGb[7] S2END[0] S2END[1] S2END[2] S2END[3] S2END[4] S2END[5]
+ S2END[6] S2END[7] S2MID[0] S2MID[1] S2MID[2] S2MID[3] S2MID[4] S2MID[5] S2MID[6]
+ S2MID[7] S4BEG[0] S4BEG[10] S4BEG[11] S4BEG[12] S4BEG[13] S4BEG[14] S4BEG[15] S4BEG[1]
+ S4BEG[2] S4BEG[3] S4BEG[4] S4BEG[5] S4BEG[6] S4BEG[7] S4BEG[8] S4BEG[9] S4END[0]
+ S4END[10] S4END[11] S4END[12] S4END[13] S4END[14] S4END[15] S4END[1] S4END[2] S4END[3]
+ S4END[4] S4END[5] S4END[6] S4END[7] S4END[8] S4END[9] SS4BEG[0] SS4BEG[10] SS4BEG[11]
+ SS4BEG[12] SS4BEG[13] SS4BEG[14] SS4BEG[15] SS4BEG[1] SS4BEG[2] SS4BEG[3] SS4BEG[4]
+ SS4BEG[5] SS4BEG[6] SS4BEG[7] SS4BEG[8] SS4BEG[9] SS4END[0] SS4END[10] SS4END[11]
+ SS4END[12] SS4END[13] SS4END[14] SS4END[15] SS4END[1] SS4END[2] SS4END[3] SS4END[4]
+ SS4END[5] SS4END[6] SS4END[7] SS4END[8] SS4END[9] UserCLK UserCLKo VGND VPWR W1BEG[0]
+ W1BEG[1] W1BEG[2] W1BEG[3] W1END[0] W1END[1] W1END[2] W1END[3] W2BEG[0] W2BEG[1]
+ W2BEG[2] W2BEG[3] W2BEG[4] W2BEG[5] W2BEG[6] W2BEG[7] W2BEGb[0] W2BEGb[1] W2BEGb[2]
+ W2BEGb[3] W2BEGb[4] W2BEGb[5] W2BEGb[6] W2BEGb[7] W2END[0] W2END[1] W2END[2] W2END[3]
+ W2END[4] W2END[5] W2END[6] W2END[7] W2MID[0] W2MID[1] W2MID[2] W2MID[3] W2MID[4]
+ W2MID[5] W2MID[6] W2MID[7] W6BEG[0] W6BEG[10] W6BEG[11] W6BEG[1] W6BEG[2] W6BEG[3]
+ W6BEG[4] W6BEG[5] W6BEG[6] W6BEG[7] W6BEG[8] W6BEG[9] W6END[0] W6END[10] W6END[11]
+ W6END[1] W6END[2] W6END[3] W6END[4] W6END[5] W6END[6] W6END[7] W6END[8] W6END[9]
+ WW4BEG[0] WW4BEG[10] WW4BEG[11] WW4BEG[12] WW4BEG[13] WW4BEG[14] WW4BEG[15] WW4BEG[1]
+ WW4BEG[2] WW4BEG[3] WW4BEG[4] WW4BEG[5] WW4BEG[6] WW4BEG[7] WW4BEG[8] WW4BEG[9]
+ WW4END[0] WW4END[10] WW4END[11] WW4END[12] WW4END[13] WW4END[14] WW4END[15] WW4END[1]
+ WW4END[2] WW4END[3] WW4END[4] WW4END[5] WW4END[6] WW4END[7] WW4END[8] WW4END[9]
XFILLER_0_76_100 VGND VGND VPWR VPWR sky130_fd_sc_hd__fill_1
XTAP_188 VGND VPWR sky130_fd_sc_hd__tapvpwrvgnd_1
XTAP_177 VGND VPWR sky130_fd_sc_hd__tapvpwrvgnd_1
XNN4END_inbuf_11._0_ net144 VGND VGND VPWR VPWR NN4BEG_outbuf_11.A sky130_fd_sc_hd__clkbuf_2
XTAP_199 VGND VPWR sky130_fd_sc_hd__tapvpwrvgnd_1
XFILLER_0_76_122 VGND VGND VPWR VPWR sky130_fd_sc_hd__fill_2
XInst_LG_LUT4c_frame_config_dffesr.inst_cus_mux161_buf.cus_mux41_buf_inst1 Inst_LG_LUT4c_frame_config_dffesr.ConfigBits\[4\]
+ Inst_LG_LUT4c_frame_config_dffesr.ConfigBits\[5\] Inst_LG_LUT4c_frame_config_dffesr.ConfigBits\[6\]
+ Inst_LG_LUT4c_frame_config_dffesr.ConfigBits\[7\] Inst_LG_LUT4c_frame_config_dffesr.I0mux
+ Inst_LG_LUT4c_frame_config_dffesr.I\[1\] VGND VGND VPWR VPWR Inst_LG_LUT4c_frame_config_dffesr.inst_cus_mux161_buf.cus_mux41_buf_out1
+ sky130_fd_sc_hd__mux4_1
XFILLER_0_17_200 VGND VGND VPWR VPWR sky130_ef_sc_hd__decap_12
XFILLER_0_72_361 VGND VGND VPWR VPWR sky130_fd_sc_hd__decap_3
XFILLER_0_17_266 VGND VGND VPWR VPWR sky130_ef_sc_hd__decap_12
XInst_LUT4AB_switch_matrix.inst_cus_mux21_LH_EN.break_comb_loop_inst1._0_ Inst_LUT4AB_switch_matrix.J_EN_BEG0
+ VGND VGND VPWR VPWR Inst_LUT4AB_switch_matrix.inst_cus_mux21_LH_EN.AIN\[1\] sky130_fd_sc_hd__clkbuf_1
XFILLER_0_67_177 VGND VGND VPWR VPWR sky130_fd_sc_hd__decap_3
Xstrobe_outbuf_12._0_ strobe_inbuf_12.X VGND VGND VPWR VPWR strobe_outbuf_12.X sky130_fd_sc_hd__clkbuf_1
XFILLER_0_70_309 VGND VGND VPWR VPWR sky130_fd_sc_hd__decap_8
XInst_LUT4AB_switch_matrix.inst_cus_mux161_buf_JE2BEG5.cus_mux41_buf_inst3 net509
+ Inst_LG_LUT4c_frame_config_dffesr.O net515 Inst_LUT4AB_switch_matrix.M_AB Inst_LUT4AB_ConfigMem.ConfigBits\[502\]
+ Inst_LUT4AB_ConfigMem.ConfigBits\[503\] VGND VGND VPWR VPWR Inst_LUT4AB_switch_matrix.inst_cus_mux161_buf_JE2BEG5.cus_mux41_buf_out3
+ sky130_fd_sc_hd__mux4_1
XInst_LUT4AB_ConfigMem.Inst_Frame18_bit16 net57 net91 VGND VGND VPWR VPWR Inst_LC_LUT4c_frame_config_dffesr.ConfigBits\[15\]
+ Inst_LUT4AB_ConfigMem.Inst_Frame18_bit16/Q_N sky130_fd_sc_hd__dlxbp_1
XInst_LUT4AB_ConfigMem.Inst_Frame12_bit6 net78 net85 VGND VGND VPWR VPWR Inst_LUT4AB_ConfigMem.ConfigBits\[372\]
+ Inst_LUT4AB_ConfigMem.Inst_Frame12_bit6/Q_N sky130_fd_sc_hd__dlxbp_1
XInst_LUT4AB_ConfigMem.Inst_Frame18_bit27 net69 net91 VGND VGND VPWR VPWR Inst_LE_LUT4c_frame_config_dffesr.ConfigBits\[9\]
+ Inst_LUT4AB_ConfigMem.Inst_Frame18_bit27/Q_N sky130_fd_sc_hd__dlxbp_1
Xdata_outbuf_7._0_ data_inbuf_7.X VGND VGND VPWR VPWR data_outbuf_7.X sky130_fd_sc_hd__clkbuf_1
XFILLER_0_73_147 VGND VGND VPWR VPWR sky130_fd_sc_hd__decap_4
XFILLER_0_46_317 VGND VGND VPWR VPWR sky130_fd_sc_hd__decap_3
XFILLER_0_39_380 VGND VGND VPWR VPWR sky130_ef_sc_hd__decap_12
XFILLER_0_13_51 VGND VGND VPWR VPWR sky130_fd_sc_hd__decap_4
Xoutput401 net401 VGND VGND VPWR VPWR NN4BEG[4] sky130_fd_sc_hd__buf_2
Xoutput434 net434 VGND VGND VPWR VPWR S4BEG[1] sky130_fd_sc_hd__buf_2
Xoutput412 net412 VGND VGND VPWR VPWR S2BEG[1] sky130_fd_sc_hd__buf_2
Xoutput423 net423 VGND VGND VPWR VPWR S2BEGb[4] sky130_fd_sc_hd__buf_2
XFILLER_0_14_236 VGND VGND VPWR VPWR sky130_ef_sc_hd__decap_12
XInst_LUT4AB_switch_matrix.inst_cus_mux81_buf_EE4BEG2.cus_mux21_inst.break_comb_loop_inst1._0_
+ Inst_LUT4AB_switch_matrix.inst_cus_mux81_buf_EE4BEG2.cus_mux21_inst.A1 VGND VGND
+ VPWR VPWR Inst_LUT4AB_switch_matrix.inst_cus_mux81_buf_EE4BEG2.cus_mux21_inst.AIN\[1\]
+ sky130_fd_sc_hd__clkbuf_1
Xoutput489 net489 VGND VGND VPWR VPWR W6BEG[7] sky130_fd_sc_hd__clkbuf_4
Xoutput456 net456 VGND VGND VPWR VPWR SS4BEG[7] sky130_fd_sc_hd__clkbuf_4
Xoutput445 net445 VGND VGND VPWR VPWR SS4BEG[11] sky130_fd_sc_hd__clkbuf_4
Xoutput467 net467 VGND VGND VPWR VPWR W2BEG[3] sky130_fd_sc_hd__clkbuf_4
Xoutput478 net478 VGND VGND VPWR VPWR W2BEGb[6] sky130_fd_sc_hd__clkbuf_4
XInst_LUT4AB_switch_matrix.inst_cus_mux21_LG_EN.break_comb_loop_inst0._0__530 VGND
+ VGND VPWR VPWR net530 Inst_LUT4AB_switch_matrix.inst_cus_mux21_LG_EN.break_comb_loop_inst0._0__530/LO
+ sky130_fd_sc_hd__conb_1
XFILLER_0_52_309 VGND VGND VPWR VPWR sky130_fd_sc_hd__fill_2
XWW4END_inbuf_3._0_ net251 VGND VGND VPWR VPWR WW4BEG_outbuf_3.A sky130_fd_sc_hd__clkbuf_1
XInst_LH_LUT4c_frame_config_dffesr.inst_cus_mux161_buf.cus_mux41_buf_inst4 Inst_LH_LUT4c_frame_config_dffesr.inst_cus_mux161_buf.cus_mux41_buf_out0
+ Inst_LH_LUT4c_frame_config_dffesr.inst_cus_mux161_buf.cus_mux41_buf_out1 Inst_LH_LUT4c_frame_config_dffesr.inst_cus_mux161_buf.cus_mux41_buf_out2
+ Inst_LH_LUT4c_frame_config_dffesr.inst_cus_mux161_buf.cus_mux41_buf_out3 Inst_LH_LUT4c_frame_config_dffesr.I\[2\]
+ Inst_LH_LUT4c_frame_config_dffesr.I\[3\] VGND VGND VPWR VPWR Inst_LH_LUT4c_frame_config_dffesr.LUT_out
+ sky130_fd_sc_hd__mux4_1
XInst_LUT4AB_ConfigMem.Inst_Frame14_bit22 net64 net87 VGND VGND VPWR VPWR Inst_LH_LUT4c_frame_config_dffesr.ConfigBits\[14\]
+ Inst_LUT4AB_ConfigMem.Inst_Frame14_bit22/Q_N sky130_fd_sc_hd__dlxbp_1
XInst_LUT4AB_switch_matrix.inst_cus_mux21_LF_SR._4_ Inst_LUT4AB_ConfigMem.ConfigBits\[325\]
+ Inst_LUT4AB_switch_matrix.inst_cus_mux21_LF_SR._0_ Inst_LUT4AB_switch_matrix.inst_cus_mux21_LF_SR._1_
+ VGND VGND VPWR VPWR Inst_LF_LUT4c_frame_config_dffesr.SR sky130_fd_sc_hd__o21ai_1
XInst_LUT4AB_ConfigMem.Inst_Frame14_bit11 net52 net87 VGND VGND VPWR VPWR Inst_LUT4AB_ConfigMem.ConfigBits\[356\]
+ Inst_LUT4AB_ConfigMem.Inst_Frame14_bit11/Q_N sky130_fd_sc_hd__dlxbp_1
XInst_LUT4AB_ConfigMem.Inst_Frame7_bit30 net73 net99 VGND VGND VPWR VPWR Inst_LUT4AB_ConfigMem.ConfigBits\[608\]
+ Inst_LUT4AB_ConfigMem.Inst_Frame7_bit30/Q_N sky130_fd_sc_hd__dlxbp_1
XInst_LUT4AB_switch_matrix.inst_cus_mux41_buf_J2MID_GHa_BEG3 net114 net14 net218 Inst_LUT4AB_switch_matrix.JW2BEG6
+ Inst_LUT4AB_ConfigMem.ConfigBits\[384\] Inst_LUT4AB_ConfigMem.ConfigBits\[385\]
+ VGND VGND VPWR VPWR Inst_LUT4AB_switch_matrix.J2MID_GHa_BEG3 sky130_fd_sc_hd__mux4_1
XFILLER_0_51_364 VGND VGND VPWR VPWR sky130_fd_sc_hd__decap_4
XFILLER_0_51_320 VGND VGND VPWR VPWR sky130_fd_sc_hd__decap_6
XFILLER_0_3_406 VGND VGND VPWR VPWR sky130_fd_sc_hd__fill_1
XFILLER_0_11_206 VGND VGND VPWR VPWR sky130_fd_sc_hd__fill_2
XFILLER_0_75_35 VGND VGND VPWR VPWR sky130_fd_sc_hd__decap_3
XFILLER_0_59_69 VGND VGND VPWR VPWR sky130_ef_sc_hd__decap_12
XInst_LUT4AB_ConfigMem.Inst_Frame4_bit9 net81 net96 VGND VGND VPWR VPWR Inst_LUT4AB_ConfigMem.ConfigBits\[447\]
+ Inst_LUT4AB_ConfigMem.Inst_Frame4_bit9/Q_N sky130_fd_sc_hd__dlxbp_1
XFILLER_0_46_114 VGND VGND VPWR VPWR sky130_fd_sc_hd__decap_8
XFILLER_0_34_309 VGND VGND VPWR VPWR sky130_ef_sc_hd__decap_12
XFILLER_0_24_61 VGND VGND VPWR VPWR sky130_ef_sc_hd__decap_12
Xoutput286 net286 VGND VGND VPWR VPWR E6BEG[9] sky130_fd_sc_hd__clkbuf_4
Xoutput275 net275 VGND VGND VPWR VPWR E6BEG[0] sky130_fd_sc_hd__clkbuf_4
XFILLER_0_49_80 VGND VGND VPWR VPWR sky130_fd_sc_hd__decap_3
XFILLER_0_42_375 VGND VGND VPWR VPWR sky130_ef_sc_hd__decap_12
Xoutput264 net264 VGND VGND VPWR VPWR E2BEG[5] sky130_fd_sc_hd__clkbuf_4
XFILLER_0_69_206 VGND VGND VPWR VPWR sky130_ef_sc_hd__decap_12
XInst_LUT4AB_ConfigMem.Inst_Frame17_bit15 net56 net90 VGND VGND VPWR VPWR Inst_LD_LUT4c_frame_config_dffesr.ConfigBits\[3\]
+ Inst_LUT4AB_ConfigMem.Inst_Frame17_bit15/Q_N sky130_fd_sc_hd__dlxbp_1
XInst_MUX8LUT_frame_config_mux.cus_mux21_sCD._2_ Inst_MUX8LUT_frame_config_mux.cus_mux21_sCD.AIN\[0\]
+ VGND VGND VPWR VPWR Inst_MUX8LUT_frame_config_mux.cus_mux21_sCD._0_ sky130_fd_sc_hd__inv_2
Xoutput297 net297 VGND VGND VPWR VPWR EE4BEG[4] sky130_fd_sc_hd__clkbuf_4
XInst_LUT4AB_ConfigMem.Inst_Frame17_bit26 net68 net90 VGND VGND VPWR VPWR Inst_LE_LUT4c_frame_config_dffesr.ConfigBits\[6\]
+ Inst_LUT4AB_ConfigMem.Inst_Frame17_bit26/Q_N sky130_fd_sc_hd__dlxbp_1
XFILLER_0_77_250 VGND VGND VPWR VPWR sky130_fd_sc_hd__fill_2
XFILLER_0_65_456 VGND VGND VPWR VPWR sky130_fd_sc_hd__fill_2
XFILLER_0_65_434 VGND VGND VPWR VPWR sky130_fd_sc_hd__fill_1
XFILLER_0_65_423 VGND VGND VPWR VPWR sky130_fd_sc_hd__fill_2
XInst_LUT4AB_switch_matrix.inst_cus_mux41_buf_J2END_CD_BEG1 net108 net8 net160 net246
+ Inst_LUT4AB_ConfigMem.ConfigBits\[428\] Inst_LUT4AB_ConfigMem.ConfigBits\[429\]
+ VGND VGND VPWR VPWR Inst_LUT4AB_switch_matrix.J2END_CD_BEG1 sky130_fd_sc_hd__mux4_2
X_200_ Inst_LUT4AB_switch_matrix.SS4BEG0 VGND VGND VPWR VPWR net446 sky130_fd_sc_hd__clkbuf_1
X_131_ N4BEG_outbuf_11.X VGND VGND VPWR VPWR net377 sky130_fd_sc_hd__clkbuf_1
X_062_ Inst_LUT4AB_switch_matrix.E2BEG6 VGND VGND VPWR VPWR net265 sky130_fd_sc_hd__buf_1
XFILLER_0_45_191 VGND VGND VPWR VPWR sky130_fd_sc_hd__decap_8
XFILLER_0_33_386 VGND VGND VPWR VPWR sky130_fd_sc_hd__decap_6
XInst_LUT4AB_switch_matrix._072_ Inst_LUT4AB_switch_matrix.JS2BEG2 VGND VGND VPWR
+ VPWR Inst_LUT4AB_switch_matrix.S2BEG2 sky130_fd_sc_hd__clkbuf_1
XFILLER_0_18_383 VGND VGND VPWR VPWR sky130_fd_sc_hd__fill_1
XInst_MUX8LUT_frame_config_mux.cus_mux21_M_AH._2_ Inst_MUX8LUT_frame_config_mux.cus_mux21_M_AH.AIN\[0\]
+ VGND VGND VPWR VPWR Inst_MUX8LUT_frame_config_mux.cus_mux21_M_AH._0_ sky130_fd_sc_hd__inv_2
XFILLER_0_45_27 VGND VGND VPWR VPWR sky130_ef_sc_hd__decap_12
XFILLER_0_0_29 VGND VGND VPWR VPWR sky130_fd_sc_hd__fill_1
XInst_LUT4AB_ConfigMem.Inst_Frame18_bit1 net61 net91 VGND VGND VPWR VPWR Inst_LUT4AB_ConfigMem.ConfigBits\[315\]
+ Inst_LUT4AB_ConfigMem.Inst_Frame18_bit1/Q_N sky130_fd_sc_hd__dlxbp_1
XFILLER_0_56_456 VGND VGND VPWR VPWR sky130_fd_sc_hd__fill_2
XFILLER_0_56_434 VGND VGND VPWR VPWR sky130_fd_sc_hd__fill_2
XFILLER_0_9_49 VGND VGND VPWR VPWR sky130_fd_sc_hd__decap_6
XFILLER_0_16_309 VGND VGND VPWR VPWR sky130_ef_sc_hd__decap_12
XFILLER_0_3_225 VGND VGND VPWR VPWR sky130_fd_sc_hd__decap_6
XFILLER_0_10_85 VGND VGND VPWR VPWR sky130_fd_sc_hd__decap_8
XFILLER_0_43_7 VGND VGND VPWR VPWR sky130_fd_sc_hd__fill_1
XInst_LUT4AB_switch_matrix.inst_cus_mux161_buf_JW2BEG7.cus_mux41_buf_inst3 net535
+ net508 net511 Inst_LUT4AB_switch_matrix.M_AB Inst_LUT4AB_ConfigMem.ConfigBits\[574\]
+ Inst_LUT4AB_ConfigMem.ConfigBits\[575\] VGND VGND VPWR VPWR Inst_LUT4AB_switch_matrix.inst_cus_mux161_buf_JW2BEG7.cus_mux41_buf_out3
+ sky130_fd_sc_hd__mux4_1
XFILLER_0_19_50 VGND VGND VPWR VPWR sky130_fd_sc_hd__decap_6
XFILLER_0_47_456 VGND VGND VPWR VPWR sky130_fd_sc_hd__fill_2
XInst_LUT4AB_ConfigMem.Inst_Frame13_bit10 net51 net86 VGND VGND VPWR VPWR Inst_LUT4AB_ConfigMem.ConfigBits\[406\]
+ Inst_LUT4AB_ConfigMem.Inst_Frame13_bit10/Q_N sky130_fd_sc_hd__dlxbp_1
XInst_LUT4AB_ConfigMem.Inst_Frame13_bit21 net63 net86 VGND VGND VPWR VPWR Inst_LUT4AB_ConfigMem.ConfigBits\[189\]
+ Inst_LUT4AB_ConfigMem.Inst_Frame13_bit21/Q_N sky130_fd_sc_hd__dlxbp_1
XInst_LUT4AB_switch_matrix.inst_cus_mux41_buf_E1BEG2 net541 Inst_LUT4AB_switch_matrix.J2MID_GHb_BEG1
+ Inst_LUT4AB_switch_matrix.JN2BEG1 Inst_LUT4AB_switch_matrix.J_l_GH_BEG3 Inst_LUT4AB_ConfigMem.ConfigBits\[186\]
+ Inst_LUT4AB_ConfigMem.ConfigBits\[187\] VGND VGND VPWR VPWR Inst_LUT4AB_switch_matrix.E1BEG2
+ sky130_fd_sc_hd__mux4_2
XFILLER_0_74_253 VGND VGND VPWR VPWR sky130_fd_sc_hd__fill_2
XFILLER_0_51_81 VGND VGND VPWR VPWR sky130_ef_sc_hd__decap_12
XInst_LE_LUT4c_frame_config_dffesr._21_ UserCLK Inst_LE_LUT4c_frame_config_dffesr._04_
+ VGND VGND VPWR VPWR Inst_LE_LUT4c_frame_config_dffesr.LUT_flop sky130_fd_sc_hd__dfxtp_1
XE6END_inbuf_3._0_ net29 VGND VGND VPWR VPWR E6BEG_outbuf_3.A sky130_fd_sc_hd__clkbuf_2
XFILLER_0_38_456 VGND VGND VPWR VPWR sky130_fd_sc_hd__fill_2
XFILLER_0_38_445 VGND VGND VPWR VPWR sky130_fd_sc_hd__fill_1
X_114_ Inst_LUT4AB_switch_matrix.N2BEGb2 VGND VGND VPWR VPWR net369 sky130_fd_sc_hd__clkbuf_1
XInst_LG_LUT4c_frame_config_dffesr.cus_mux21_O._4_ Inst_LG_LUT4c_frame_config_dffesr.ConfigBits\[16\]
+ Inst_LG_LUT4c_frame_config_dffesr.cus_mux21_O._0_ Inst_LG_LUT4c_frame_config_dffesr.cus_mux21_O._1_
+ VGND VGND VPWR VPWR Inst_LG_LUT4c_frame_config_dffesr.O sky130_fd_sc_hd__o21ai_4
X_045_ E6BEG_outbuf_5.X VGND VGND VPWR VPWR net282 sky130_fd_sc_hd__clkbuf_1
XTAP_507 VGND VPWR sky130_fd_sc_hd__tapvpwrvgnd_1
XInst_LUT4AB_switch_matrix._055_ Inst_LUT4AB_switch_matrix.JN2BEG1 VGND VGND VPWR
+ VPWR Inst_LUT4AB_switch_matrix.N2BEG1 sky130_fd_sc_hd__clkbuf_2
XTAP_529 VGND VPWR sky130_fd_sc_hd__tapvpwrvgnd_1
XTAP_518 VGND VPWR sky130_fd_sc_hd__tapvpwrvgnd_1
XInst_MUX8LUT_frame_config_mux.cus_mux21_AB._3_ Inst_MUX8LUT_frame_config_mux.cus_mux21_AB.AIN\[1\]
+ Inst_LUT4AB_switch_matrix.S0 VGND VGND VPWR VPWR Inst_MUX8LUT_frame_config_mux.cus_mux21_AB._1_
+ sky130_fd_sc_hd__nand2_1
XFILLER_0_29_456 VGND VGND VPWR VPWR sky130_fd_sc_hd__fill_2
XFILLER_0_29_423 VGND VGND VPWR VPWR sky130_fd_sc_hd__fill_1
XFILLER_0_71_278 VGND VGND VPWR VPWR sky130_fd_sc_hd__fill_2
XInst_LUT4AB_switch_matrix.inst_cus_mux21_LC_EN._4_ Inst_LUT4AB_ConfigMem.ConfigBits\[286\]
+ Inst_LUT4AB_switch_matrix.inst_cus_mux21_LC_EN._0_ Inst_LUT4AB_switch_matrix.inst_cus_mux21_LC_EN._1_
+ VGND VGND VPWR VPWR Inst_LC_LUT4c_frame_config_dffesr.EN sky130_fd_sc_hd__o21ai_1
XFILLER_0_56_253 VGND VGND VPWR VPWR sky130_ef_sc_hd__decap_12
XFILLER_0_56_242 VGND VGND VPWR VPWR sky130_fd_sc_hd__decap_8
XInst_LUT4AB_ConfigMem.Inst_Frame16_bit14 net55 net89 VGND VGND VPWR VPWR Inst_LD_LUT4c_frame_config_dffesr.ConfigBits\[12\]
+ Inst_LUT4AB_ConfigMem.Inst_Frame16_bit14/Q_N sky130_fd_sc_hd__dlxbp_1
XFILLER_0_21_84 VGND VGND VPWR VPWR sky130_fd_sc_hd__decap_3
XInst_LUT4AB_ConfigMem.Inst_Frame16_bit25 net67 net89 VGND VGND VPWR VPWR Inst_LE_LUT4c_frame_config_dffesr.ConfigBits\[17\]
+ Inst_LUT4AB_ConfigMem.Inst_Frame16_bit25/Q_N sky130_fd_sc_hd__dlxbp_1
XInst_LH_LUT4c_frame_config_dffesr.cus_mux21_O._2_ Inst_LH_LUT4c_frame_config_dffesr.cus_mux21_O.AIN\[0\]
+ VGND VGND VPWR VPWR Inst_LH_LUT4c_frame_config_dffesr.cus_mux21_O._0_ sky130_fd_sc_hd__inv_2
XFILLER_0_62_212 VGND VGND VPWR VPWR sky130_fd_sc_hd__decap_6
XInst_LUT4AB_ConfigMem.Inst_Frame9_bit22 net64 net101 VGND VGND VPWR VPWR Inst_LUT4AB_ConfigMem.ConfigBits\[197\]
+ Inst_LUT4AB_ConfigMem.Inst_Frame9_bit22/Q_N sky130_fd_sc_hd__dlxbp_1
XInst_LUT4AB_ConfigMem.Inst_Frame9_bit11 net52 net101 VGND VGND VPWR VPWR Inst_LUT4AB_ConfigMem.ConfigBits\[419\]
+ Inst_LUT4AB_ConfigMem.Inst_Frame9_bit11/Q_N sky130_fd_sc_hd__dlxbp_1
XSS4END_inbuf_5._0_ net205 VGND VGND VPWR VPWR SS4BEG_outbuf_5.A sky130_fd_sc_hd__clkbuf_1
XFILLER_0_30_153 VGND VGND VPWR VPWR sky130_ef_sc_hd__decap_12
XFILLER_0_7_361 VGND VGND VPWR VPWR sky130_fd_sc_hd__fill_2
Xsplit8 Inst_LUT4AB_switch_matrix.M_AB VGND VGND VPWR VPWR net542 sky130_fd_sc_hd__buf_4
XFILLER_0_30_197 VGND VGND VPWR VPWR sky130_fd_sc_hd__decap_4
XFILLER_0_26_29 VGND VGND VPWR VPWR sky130_fd_sc_hd__fill_2
XInst_LUT4AB_ConfigMem.Inst_Frame0_bit1 net61 net82 VGND VGND VPWR VPWR Inst_LUT4AB_ConfigMem.ConfigBits\[397\]
+ Inst_LUT4AB_ConfigMem.Inst_Frame0_bit1/Q_N sky130_fd_sc_hd__dlxbp_1
XInst_LUT4AB_switch_matrix._107_ net509 VGND VGND VPWR VPWR Inst_LUT4AB_switch_matrix.E
+ sky130_fd_sc_hd__clkbuf_1
XFILLER_0_53_245 VGND VGND VPWR VPWR sky130_fd_sc_hd__fill_2
XFILLER_0_53_201 VGND VGND VPWR VPWR sky130_fd_sc_hd__fill_2
XInst_LUT4AB_ConfigMem.Inst_Frame15_bit4 net76 net88 VGND VGND VPWR VPWR Inst_LUT4AB_ConfigMem.ConfigBits\[298\]
+ Inst_LUT4AB_ConfigMem.Inst_Frame15_bit4/Q_N sky130_fd_sc_hd__dlxbp_1
X_028_ data_outbuf_28.X VGND VGND VPWR VPWR net323 sky130_fd_sc_hd__clkbuf_1
XInst_LUT4AB_ConfigMem.Inst_Frame12_bit20 net62 net85 VGND VGND VPWR VPWR Inst_LUT4AB_ConfigMem.ConfigBits\[191\]
+ Inst_LUT4AB_ConfigMem.Inst_Frame12_bit20/Q_N sky130_fd_sc_hd__dlxbp_1
XInst_LUT4AB_ConfigMem.Inst_Frame12_bit31 net74 net85 VGND VGND VPWR VPWR Inst_LUT4AB_ConfigMem.ConfigBits\[594\]
+ Inst_LUT4AB_ConfigMem.Inst_Frame12_bit31/Q_N sky130_fd_sc_hd__dlxbp_1
XInst_LUT4AB_switch_matrix._038_ net17 VGND VGND VPWR VPWR Inst_LUT4AB_switch_matrix.E2BEGb3
+ sky130_fd_sc_hd__clkbuf_2
XTAP_348 VGND VPWR sky130_fd_sc_hd__tapvpwrvgnd_1
XTAP_337 VGND VPWR sky130_fd_sc_hd__tapvpwrvgnd_1
XANTENNA_5 Inst_LUT4AB_switch_matrix.J2MID_EFb_BEG0 VGND VGND VPWR VPWR sky130_fd_sc_hd__diode_2
XTAP_304 VGND VPWR sky130_fd_sc_hd__tapvpwrvgnd_1
XTAP_315 VGND VPWR sky130_fd_sc_hd__tapvpwrvgnd_1
XTAP_326 VGND VPWR sky130_fd_sc_hd__tapvpwrvgnd_1
Xstrobe_outbuf_7._0_ strobe_inbuf_7.X VGND VGND VPWR VPWR strobe_outbuf_7.X sky130_fd_sc_hd__clkbuf_1
XInst_LUT4AB_ConfigMem.Inst_Frame19_bit18 net59 net92 VGND VGND VPWR VPWR Inst_LUT4AB_ConfigMem.ConfigBits\[154\]
+ Inst_LUT4AB_ConfigMem.Inst_Frame19_bit18/Q_N sky130_fd_sc_hd__dlxbp_1
XTAP_359 VGND VPWR sky130_fd_sc_hd__tapvpwrvgnd_1
XFILLER_0_20_9 VGND VGND VPWR VPWR sky130_fd_sc_hd__fill_2
XInst_LUT4AB_switch_matrix.inst_cus_mux161_buf_JS2BEG6.cus_mux41_buf_inst3 net509
+ net541 net515 net542 Inst_LUT4AB_ConfigMem.ConfigBits\[538\] Inst_LUT4AB_ConfigMem.ConfigBits\[539\]
+ VGND VGND VPWR VPWR Inst_LUT4AB_switch_matrix.inst_cus_mux161_buf_JS2BEG6.cus_mux41_buf_out3
+ sky130_fd_sc_hd__mux4_1
XInst_LUT4AB_switch_matrix.inst_cus_mux21_LA_SR.break_comb_loop_inst0._0_ net516 VGND
+ VGND VPWR VPWR Inst_LUT4AB_switch_matrix.inst_cus_mux21_LA_SR.AIN\[0\] sky130_fd_sc_hd__buf_2
XInst_LUT4AB_switch_matrix.inst_cus_mux161_buf_JE2BEG0.cus_mux41_buf_inst0 net105
+ net107 net129 net41 Inst_LUT4AB_ConfigMem.ConfigBits\[482\] Inst_LUT4AB_ConfigMem.ConfigBits\[483\]
+ VGND VGND VPWR VPWR Inst_LUT4AB_switch_matrix.inst_cus_mux161_buf_JE2BEG0.cus_mux41_buf_out0
+ sky130_fd_sc_hd__mux4_1
XFILLER_0_12_164 VGND VGND VPWR VPWR sky130_fd_sc_hd__fill_2
XFILLER_0_12_197 VGND VGND VPWR VPWR sky130_ef_sc_hd__decap_12
XEE4END_inbuf_4._0_ net48 VGND VGND VPWR VPWR EE4BEG_outbuf_4.A sky130_fd_sc_hd__clkbuf_2
XFILLER_0_35_267 VGND VGND VPWR VPWR sky130_ef_sc_hd__decap_12
XFILLER_0_35_212 VGND VGND VPWR VPWR sky130_ef_sc_hd__decap_12
Xdata_inbuf_1._0_ net61 VGND VGND VPWR VPWR data_inbuf_1.X sky130_fd_sc_hd__clkbuf_1
XInst_LUT4AB_switch_matrix.inst_cus_mux81_buf_NN4BEG3.cus_mux41_buf_inst1 net509 Inst_LUT4AB_switch_matrix.J2MID_EFa_BEG2
+ net538 Inst_LUT4AB_switch_matrix.J2END_AB_BEG1 Inst_LUT4AB_ConfigMem.ConfigBits\[179\]
+ Inst_LUT4AB_ConfigMem.ConfigBits\[180\] VGND VGND VPWR VPWR Inst_LUT4AB_switch_matrix.inst_cus_mux81_buf_NN4BEG3.cus_mux21_inst.A1
+ sky130_fd_sc_hd__mux4_1
Xinput197 SS4END[1] VGND VGND VPWR VPWR net197 sky130_fd_sc_hd__buf_2
Xinput186 S4END[6] VGND VGND VPWR VPWR net186 sky130_fd_sc_hd__clkbuf_1
Xinput164 S2END[6] VGND VGND VPWR VPWR net164 sky130_fd_sc_hd__buf_2
Xinput175 S4END[10] VGND VGND VPWR VPWR net175 sky130_fd_sc_hd__clkbuf_1
XInst_LUT4AB_switch_matrix.inst_cus_mux161_buf_E6BEG1.cus_mux41_buf_inst1 net537 net510
+ net509 net541 Inst_LUT4AB_ConfigMem.ConfigBits\[206\] Inst_LUT4AB_ConfigMem.ConfigBits\[207\]
+ VGND VGND VPWR VPWR Inst_LUT4AB_switch_matrix.inst_cus_mux161_buf_E6BEG1.cus_mux41_buf_out1
+ sky130_fd_sc_hd__mux4_1
Xinput153 NN4END[9] VGND VGND VPWR VPWR net153 sky130_fd_sc_hd__clkbuf_1
Xinput142 NN4END[13] VGND VGND VPWR VPWR net142 sky130_fd_sc_hd__clkbuf_1
Xinput120 N2MID[6] VGND VGND VPWR VPWR net120 sky130_fd_sc_hd__clkbuf_4
Xinput131 N4END[3] VGND VGND VPWR VPWR net131 sky130_fd_sc_hd__clkbuf_4
XFILLER_0_73_329 VGND VGND VPWR VPWR sky130_fd_sc_hd__decap_6
XInst_LUT4AB_ConfigMem.Inst_Frame15_bit13 net54 net88 VGND VGND VPWR VPWR Inst_LD_LUT4c_frame_config_dffesr.ConfigBits\[11\]
+ Inst_LUT4AB_ConfigMem.Inst_Frame15_bit13/Q_N sky130_fd_sc_hd__dlxbp_1
XInst_LUT4AB_ConfigMem.Inst_Frame15_bit24 net66 net88 VGND VGND VPWR VPWR Inst_LF_LUT4c_frame_config_dffesr.ConfigBits\[13\]
+ Inst_LUT4AB_ConfigMem.Inst_Frame15_bit24/Q_N sky130_fd_sc_hd__dlxbp_1