* NGSPICE file created from W_IO.ext - technology: sky130A

* Black-box entry subcircuit for sky130_fd_sc_hd__decap_4 abstract view
.subckt sky130_fd_sc_hd__decap_4 VGND VNB VPB VPWR
.ends

* Black-box entry subcircuit for sky130_fd_sc_hd__tapvpwrvgnd_1 abstract view
.subckt sky130_fd_sc_hd__tapvpwrvgnd_1 VGND VPWR
.ends

* Black-box entry subcircuit for sky130_fd_sc_hd__fill_2 abstract view
.subckt sky130_fd_sc_hd__fill_2 VGND VNB VPB VPWR
.ends

* Black-box entry subcircuit for sky130_fd_sc_hd__fill_1 abstract view
.subckt sky130_fd_sc_hd__fill_1 VGND VNB VPB VPWR
.ends

* Black-box entry subcircuit for sky130_fd_sc_hd__clkbuf_1 abstract view
.subckt sky130_fd_sc_hd__clkbuf_1 A VGND VNB VPB VPWR X
.ends

* Black-box entry subcircuit for sky130_ef_sc_hd__decap_12 abstract view
.subckt sky130_ef_sc_hd__decap_12 VGND VNB VPB VPWR
.ends

* Black-box entry subcircuit for sky130_fd_sc_hd__dlxbp_1 abstract view
.subckt sky130_fd_sc_hd__dlxbp_1 D GATE VGND VNB VPB VPWR Q Q_N
.ends

* Black-box entry subcircuit for sky130_fd_sc_hd__decap_6 abstract view
.subckt sky130_fd_sc_hd__decap_6 VGND VNB VPB VPWR
.ends

* Black-box entry subcircuit for sky130_fd_sc_hd__clkbuf_2 abstract view
.subckt sky130_fd_sc_hd__clkbuf_2 A VGND VNB VPB VPWR X
.ends

* Black-box entry subcircuit for sky130_fd_sc_hd__decap_8 abstract view
.subckt sky130_fd_sc_hd__decap_8 VGND VNB VPB VPWR
.ends

* Black-box entry subcircuit for sky130_fd_sc_hd__decap_3 abstract view
.subckt sky130_fd_sc_hd__decap_3 VGND VNB VPB VPWR
.ends

* Black-box entry subcircuit for sky130_fd_sc_hd__conb_1 abstract view
.subckt sky130_fd_sc_hd__conb_1 VGND VNB VPB VPWR HI LO
.ends

* Black-box entry subcircuit for sky130_fd_sc_hd__buf_2 abstract view
.subckt sky130_fd_sc_hd__buf_2 A VGND VNB VPB VPWR X
.ends

* Black-box entry subcircuit for sky130_fd_sc_hd__mux4_1 abstract view
.subckt sky130_fd_sc_hd__mux4_1 A0 A1 A2 A3 S0 S1 VGND VNB VPB VPWR X
.ends

* Black-box entry subcircuit for sky130_fd_sc_hd__dfxtp_1 abstract view
.subckt sky130_fd_sc_hd__dfxtp_1 CLK D VGND VNB VPB VPWR Q
.ends

* Black-box entry subcircuit for sky130_fd_sc_hd__buf_1 abstract view
.subckt sky130_fd_sc_hd__buf_1 A VGND VNB VPB VPWR X
.ends

* Black-box entry subcircuit for sky130_fd_sc_hd__inv_2 abstract view
.subckt sky130_fd_sc_hd__inv_2 A VGND VNB VPB VPWR Y
.ends

* Black-box entry subcircuit for sky130_fd_sc_hd__clkbuf_4 abstract view
.subckt sky130_fd_sc_hd__clkbuf_4 A VGND VNB VPB VPWR X
.ends

* Black-box entry subcircuit for sky130_fd_sc_hd__dlymetal6s2s_1 abstract view
.subckt sky130_fd_sc_hd__dlymetal6s2s_1 A VGND VNB VPB VPWR X
.ends

* Black-box entry subcircuit for sky130_fd_sc_hd__o21ai_1 abstract view
.subckt sky130_fd_sc_hd__o21ai_1 A1 A2 B1 VGND VNB VPB VPWR Y
.ends

* Black-box entry subcircuit for sky130_fd_sc_hd__nand2_1 abstract view
.subckt sky130_fd_sc_hd__nand2_1 A B VGND VNB VPB VPWR Y
.ends

* Black-box entry subcircuit for sky130_fd_sc_hd__mux4_2 abstract view
.subckt sky130_fd_sc_hd__mux4_2 A0 A1 A2 A3 S0 S1 VGND VNB VPB VPWR X
.ends

* Black-box entry subcircuit for sky130_fd_sc_hd__clkbuf_16 abstract view
.subckt sky130_fd_sc_hd__clkbuf_16 A VGND VNB VPB VPWR X
.ends

* Black-box entry subcircuit for sky130_fd_sc_hd__buf_8 abstract view
.subckt sky130_fd_sc_hd__buf_8 A VGND VNB VPB VPWR X
.ends

* Black-box entry subcircuit for sky130_fd_sc_hd__buf_4 abstract view
.subckt sky130_fd_sc_hd__buf_4 A VGND VNB VPB VPWR X
.ends

* Black-box entry subcircuit for sky130_fd_sc_hd__diode_2 abstract view
.subckt sky130_fd_sc_hd__diode_2 DIODE VGND VNB VPB VPWR
.ends

.subckt W_IO A_I_top A_O_top A_T_top A_config_C_bit0 A_config_C_bit1 A_config_C_bit2
+ A_config_C_bit3 B_I_top B_O_top B_T_top B_config_C_bit0 B_config_C_bit1 B_config_C_bit2
+ B_config_C_bit3 E1BEG[0] E1BEG[1] E1BEG[2] E1BEG[3] E2BEG[0] E2BEG[1] E2BEG[2] E2BEG[3]
+ E2BEG[4] E2BEG[5] E2BEG[6] E2BEG[7] E2BEGb[0] E2BEGb[1] E2BEGb[2] E2BEGb[3] E2BEGb[4]
+ E2BEGb[5] E2BEGb[6] E2BEGb[7] E6BEG[0] E6BEG[10] E6BEG[11] E6BEG[1] E6BEG[2] E6BEG[3]
+ E6BEG[4] E6BEG[5] E6BEG[6] E6BEG[7] E6BEG[8] E6BEG[9] EE4BEG[0] EE4BEG[10] EE4BEG[11]
+ EE4BEG[12] EE4BEG[13] EE4BEG[14] EE4BEG[15] EE4BEG[1] EE4BEG[2] EE4BEG[3] EE4BEG[4]
+ EE4BEG[5] EE4BEG[6] EE4BEG[7] EE4BEG[8] EE4BEG[9] FrameData[0] FrameData[10] FrameData[11]
+ FrameData[12] FrameData[13] FrameData[14] FrameData[15] FrameData[16] FrameData[17]
+ FrameData[18] FrameData[19] FrameData[1] FrameData[20] FrameData[21] FrameData[22]
+ FrameData[23] FrameData[24] FrameData[25] FrameData[26] FrameData[27] FrameData[28]
+ FrameData[29] FrameData[2] FrameData[30] FrameData[31] FrameData[3] FrameData[4]
+ FrameData[5] FrameData[6] FrameData[7] FrameData[8] FrameData[9] FrameData_O[0]
+ FrameData_O[10] FrameData_O[11] FrameData_O[12] FrameData_O[13] FrameData_O[14]
+ FrameData_O[15] FrameData_O[16] FrameData_O[17] FrameData_O[18] FrameData_O[19]
+ FrameData_O[1] FrameData_O[20] FrameData_O[21] FrameData_O[22] FrameData_O[23] FrameData_O[24]
+ FrameData_O[25] FrameData_O[26] FrameData_O[27] FrameData_O[28] FrameData_O[29]
+ FrameData_O[2] FrameData_O[30] FrameData_O[31] FrameData_O[3] FrameData_O[4] FrameData_O[5]
+ FrameData_O[6] FrameData_O[7] FrameData_O[8] FrameData_O[9] FrameStrobe[0] FrameStrobe[10]
+ FrameStrobe[11] FrameStrobe[12] FrameStrobe[13] FrameStrobe[14] FrameStrobe[15]
+ FrameStrobe[16] FrameStrobe[17] FrameStrobe[18] FrameStrobe[19] FrameStrobe[1] FrameStrobe[2]
+ FrameStrobe[3] FrameStrobe[4] FrameStrobe[5] FrameStrobe[6] FrameStrobe[7] FrameStrobe[8]
+ FrameStrobe[9] FrameStrobe_O[0] FrameStrobe_O[10] FrameStrobe_O[11] FrameStrobe_O[12]
+ FrameStrobe_O[13] FrameStrobe_O[14] FrameStrobe_O[15] FrameStrobe_O[16] FrameStrobe_O[17]
+ FrameStrobe_O[18] FrameStrobe_O[19] FrameStrobe_O[1] FrameStrobe_O[2] FrameStrobe_O[3]
+ FrameStrobe_O[4] FrameStrobe_O[5] FrameStrobe_O[6] FrameStrobe_O[7] FrameStrobe_O[8]
+ FrameStrobe_O[9] UserCLK UserCLKo VGND VPWR W1END[0] W1END[1] W1END[2] W1END[3]
+ W2END[0] W2END[1] W2END[2] W2END[3] W2END[4] W2END[5] W2END[6] W2END[7] W2MID[0]
+ W2MID[1] W2MID[2] W2MID[3] W2MID[4] W2MID[5] W2MID[6] W2MID[7] W6END[0] W6END[10]
+ W6END[11] W6END[1] W6END[2] W6END[3] W6END[4] W6END[5] W6END[6] W6END[7] W6END[8]
+ W6END[9] WW4END[0] WW4END[10] WW4END[11] WW4END[12] WW4END[13] WW4END[14] WW4END[15]
+ WW4END[1] WW4END[2] WW4END[3] WW4END[4] WW4END[5] WW4END[6] WW4END[7] WW4END[8]
+ WW4END[9]
XFILLER_0_76_100 VGND VGND VPWR VPWR sky130_fd_sc_hd__decap_4
XTAP_188 VGND VPWR sky130_fd_sc_hd__tapvpwrvgnd_1
XTAP_177 VGND VPWR sky130_fd_sc_hd__tapvpwrvgnd_1
XTAP_199 VGND VPWR sky130_fd_sc_hd__tapvpwrvgnd_1
XFILLER_0_67_144 VGND VGND VPWR VPWR sky130_fd_sc_hd__fill_2
XFILLER_0_67_111 VGND VGND VPWR VPWR sky130_fd_sc_hd__fill_1
Xstrobe_outbuf_12._0_ strobe_inbuf_12.X VGND VGND VPWR VPWR strobe_outbuf_12.X sky130_fd_sc_hd__clkbuf_1
XFILLER_0_48_15 VGND VGND VPWR VPWR sky130_ef_sc_hd__decap_12
Xdata_outbuf_7._0_ data_inbuf_7.X VGND VGND VPWR VPWR data_outbuf_7.X sky130_fd_sc_hd__clkbuf_1
X_83_ strobe_outbuf_3.X VGND VGND VPWR VPWR net208 sky130_fd_sc_hd__clkbuf_1
XFILLER_0_3_39 VGND VGND VPWR VPWR sky130_ef_sc_hd__decap_12
XInst_W_IO_ConfigMem.Inst_frame0_bit0 net3 net35 VGND VGND VPWR VPWR Inst_W_IO_ConfigMem.ConfigBits\[82\]
+ Inst_W_IO_ConfigMem.Inst_frame0_bit0/Q_N sky130_fd_sc_hd__dlxbp_1
XFILLER_0_58_100 VGND VGND VPWR VPWR sky130_fd_sc_hd__decap_6
XFILLER_0_73_125 VGND VGND VPWR VPWR sky130_ef_sc_hd__decap_12
XFILLER_0_13_84 VGND VGND VPWR VPWR sky130_fd_sc_hd__decap_6
XFILLER_0_49_144 VGND VGND VPWR VPWR sky130_fd_sc_hd__fill_2
XFILLER_0_18_29 VGND VGND VPWR VPWR sky130_ef_sc_hd__decap_12
XFILLER_0_50_27 VGND VGND VPWR VPWR sky130_fd_sc_hd__fill_1
XFILLER_0_70_106 VGND VGND VPWR VPWR sky130_ef_sc_hd__decap_12
XFILLER_0_75_68 VGND VGND VPWR VPWR sky130_fd_sc_hd__decap_6
XFILLER_0_75_46 VGND VGND VPWR VPWR sky130_fd_sc_hd__fill_2
XFILLER_0_75_13 VGND VGND VPWR VPWR sky130_fd_sc_hd__decap_6
XFILLER_0_59_69 VGND VGND VPWR VPWR sky130_fd_sc_hd__decap_6
X_66_ data_outbuf_18.X VGND VGND VPWR VPWR net172 sky130_fd_sc_hd__clkbuf_1
XInst_B_IO_1_bidirectional_frame_config_pass._3_ net2 VGND VGND VPWR VPWR Inst_B_IO_1_bidirectional_frame_config_pass.O
+ sky130_fd_sc_hd__clkbuf_2
XFILLER_0_61_117 VGND VGND VPWR VPWR sky130_fd_sc_hd__fill_2
XFILLER_0_61_128 VGND VGND VPWR VPWR sky130_fd_sc_hd__fill_1
XFILLER_0_40_82 VGND VGND VPWR VPWR sky130_fd_sc_hd__fill_2
XFILLER_0_29_39 VGND VGND VPWR VPWR sky130_fd_sc_hd__fill_2
XFILLER_0_45_27 VGND VGND VPWR VPWR sky130_ef_sc_hd__decap_12
XFILLER_0_9_16 VGND VGND VPWR VPWR sky130_ef_sc_hd__decap_12
XFILLER_0_10_85 VGND VGND VPWR VPWR sky130_fd_sc_hd__decap_8
XFILLER_0_10_41 VGND VGND VPWR VPWR sky130_ef_sc_hd__decap_12
XFILLER_0_43_7 VGND VGND VPWR VPWR sky130_ef_sc_hd__decap_12
X_49_ data_outbuf_1.X VGND VGND VPWR VPWR net174 sky130_fd_sc_hd__clkbuf_1
XFILLER_0_46_81 VGND VGND VPWR VPWR sky130_fd_sc_hd__decap_3
XFILLER_0_1_61 VGND VGND VPWR VPWR sky130_fd_sc_hd__decap_3
XFILLER_0_30_120 VGND VGND VPWR VPWR sky130_fd_sc_hd__fill_2
XFILLER_0_26_18 VGND VGND VPWR VPWR sky130_fd_sc_hd__decap_8
XFILLER_0_26_29 VGND VGND VPWR VPWR sky130_ef_sc_hd__decap_12
XTAP_348 VGND VPWR sky130_fd_sc_hd__tapvpwrvgnd_1
XTAP_337 VGND VPWR sky130_fd_sc_hd__tapvpwrvgnd_1
XFILLER_0_67_69 VGND VGND VPWR VPWR sky130_ef_sc_hd__decap_12
XTAP_326 VGND VPWR sky130_fd_sc_hd__tapvpwrvgnd_1
XTAP_315 VGND VPWR sky130_fd_sc_hd__tapvpwrvgnd_1
XTAP_304 VGND VPWR sky130_fd_sc_hd__tapvpwrvgnd_1
Xstrobe_outbuf_7._0_ strobe_inbuf_7.X VGND VGND VPWR VPWR strobe_outbuf_7.X sky130_fd_sc_hd__clkbuf_1
XFILLER_0_20_9 VGND VGND VPWR VPWR sky130_fd_sc_hd__fill_1
XFILLER_0_8_136 VGND VGND VPWR VPWR sky130_fd_sc_hd__fill_1
Xdata_inbuf_1._0_ net14 VGND VGND VPWR VPWR data_inbuf_1.X sky130_fd_sc_hd__clkbuf_1
XTAP_189 VGND VPWR sky130_fd_sc_hd__tapvpwrvgnd_1
XTAP_178 VGND VPWR sky130_fd_sc_hd__tapvpwrvgnd_1
XTAP_167 VGND VPWR sky130_fd_sc_hd__tapvpwrvgnd_1
XTAP_156 VGND VPWR sky130_fd_sc_hd__tapvpwrvgnd_1
XFILLER_0_76_112 VGND VGND VPWR VPWR sky130_fd_sc_hd__fill_1
XFILLER_0_23_19 VGND VGND VPWR VPWR sky130_ef_sc_hd__decap_12
XFILLER_0_2_109 VGND VGND VPWR VPWR sky130_ef_sc_hd__decap_12
XFILLER_0_48_27 VGND VGND VPWR VPWR sky130_fd_sc_hd__fill_1
X_82_ strobe_outbuf_2.X VGND VGND VPWR VPWR net207 sky130_fd_sc_hd__clkbuf_1
XInst_W_IO_ConfigMem.Inst_frame0_bit1 net14 net35 VGND VGND VPWR VPWR Inst_W_IO_ConfigMem.ConfigBits\[83\]
+ Inst_W_IO_ConfigMem.Inst_frame0_bit1/Q_N sky130_fd_sc_hd__dlxbp_1
XFILLER_0_73_137 VGND VGND VPWR VPWR sky130_fd_sc_hd__decap_8
XFILLER_0_58_145 VGND VGND VPWR VPWR sky130_fd_sc_hd__fill_1
XFILLER_0_73_7 VGND VGND VPWR VPWR sky130_ef_sc_hd__decap_12
XFILLER_0_64_126 VGND VGND VPWR VPWR sky130_fd_sc_hd__fill_2
XFILLER_0_34_29 VGND VGND VPWR VPWR sky130_ef_sc_hd__decap_12
XFILLER_0_70_118 VGND VGND VPWR VPWR sky130_fd_sc_hd__decap_6
XInst_W_IO_switch_matrix.inst_cus_mux81_buf_A_T.cus_mux41_buf_inst1_216 VGND VGND
+ VPWR VPWR Inst_W_IO_switch_matrix.inst_cus_mux81_buf_A_T.cus_mux41_buf_inst1_216/HI
+ net216 sky130_fd_sc_hd__conb_1
X_65_ data_outbuf_17.X VGND VGND VPWR VPWR net171 sky130_fd_sc_hd__clkbuf_1
XInst_B_IO_1_bidirectional_frame_config_pass._2_ Inst_B_IO_1_bidirectional_frame_config_pass.I
+ VGND VGND VPWR VPWR net109 sky130_fd_sc_hd__clkbuf_1
XFILLER_0_24_73 VGND VGND VPWR VPWR sky130_fd_sc_hd__decap_8
Xoutput210 net210 VGND VGND VPWR VPWR FrameStrobe_O[5] sky130_fd_sc_hd__buf_2
XFILLER_0_4_83 VGND VGND VPWR VPWR sky130_fd_sc_hd__fill_1
XFILLER_0_45_39 VGND VGND VPWR VPWR sky130_ef_sc_hd__decap_12
XFILLER_0_9_28 VGND VGND VPWR VPWR sky130_ef_sc_hd__decap_12
XFILLER_0_10_53 VGND VGND VPWR VPWR sky130_ef_sc_hd__decap_12
XFILLER_0_35_50 VGND VGND VPWR VPWR sky130_fd_sc_hd__decap_3
XFILLER_0_36_7 VGND VGND VPWR VPWR sky130_ef_sc_hd__decap_12
X_48_ data_outbuf_0.X VGND VGND VPWR VPWR net163 sky130_fd_sc_hd__clkbuf_1
XFILLER_0_31_19 VGND VGND VPWR VPWR sky130_ef_sc_hd__decap_12
XFILLER_0_72_15 VGND VGND VPWR VPWR sky130_ef_sc_hd__decap_12
XFILLER_0_56_27 VGND VGND VPWR VPWR sky130_fd_sc_hd__fill_1
XFILLER_0_21_30 VGND VGND VPWR VPWR sky130_ef_sc_hd__decap_12
XFILLER_0_46_93 VGND VGND VPWR VPWR sky130_fd_sc_hd__fill_2
XFILLER_0_1_84 VGND VGND VPWR VPWR sky130_fd_sc_hd__decap_4
XFILLER_0_42_29 VGND VGND VPWR VPWR sky130_ef_sc_hd__decap_12
Xdata_outbuf_10._0_ data_inbuf_10.X VGND VGND VPWR VPWR data_outbuf_10.X sky130_fd_sc_hd__clkbuf_1
XTAP_349 VGND VPWR sky130_fd_sc_hd__tapvpwrvgnd_1
XTAP_338 VGND VPWR sky130_fd_sc_hd__tapvpwrvgnd_1
XTAP_327 VGND VPWR sky130_fd_sc_hd__tapvpwrvgnd_1
XTAP_316 VGND VPWR sky130_fd_sc_hd__tapvpwrvgnd_1
XFILLER_0_6_29 VGND VGND VPWR VPWR sky130_ef_sc_hd__decap_12
XTAP_305 VGND VPWR sky130_fd_sc_hd__tapvpwrvgnd_1
XFILLER_0_16_41 VGND VGND VPWR VPWR sky130_fd_sc_hd__fill_1
XFILLER_0_5_107 VGND VGND VPWR VPWR sky130_fd_sc_hd__decap_4
XTAP_179 VGND VPWR sky130_fd_sc_hd__tapvpwrvgnd_1
XTAP_168 VGND VPWR sky130_fd_sc_hd__tapvpwrvgnd_1
XTAP_157 VGND VPWR sky130_fd_sc_hd__tapvpwrvgnd_1
XFILLER_0_76_124 VGND VGND VPWR VPWR sky130_fd_sc_hd__fill_2
XFILLER_0_7_50 VGND VGND VPWR VPWR sky130_fd_sc_hd__decap_6
X_81_ strobe_outbuf_1.X VGND VGND VPWR VPWR net206 sky130_fd_sc_hd__clkbuf_1
XFILLER_0_64_27 VGND VGND VPWR VPWR sky130_fd_sc_hd__fill_1
XInst_W_IO_ConfigMem.Inst_frame0_bit2 net25 net35 VGND VGND VPWR VPWR Inst_W_IO_ConfigMem.ConfigBits\[84\]
+ Inst_W_IO_ConfigMem.Inst_frame0_bit2/Q_N sky130_fd_sc_hd__dlxbp_1
XFILLER_0_73_105 VGND VGND VPWR VPWR sky130_fd_sc_hd__decap_6
XFILLER_0_13_75 VGND VGND VPWR VPWR sky130_fd_sc_hd__decap_3
XFILLER_0_1_132 VGND VGND VPWR VPWR sky130_fd_sc_hd__decap_4
XFILLER_0_38_83 VGND VGND VPWR VPWR sky130_fd_sc_hd__fill_1
XFILLER_0_49_113 VGND VGND VPWR VPWR sky130_fd_sc_hd__fill_2
XFILLER_0_34_19 VGND VGND VPWR VPWR sky130_fd_sc_hd__decap_8
XFILLER_0_50_29 VGND VGND VPWR VPWR sky130_ef_sc_hd__decap_12
XFILLER_0_55_105 VGND VGND VPWR VPWR sky130_fd_sc_hd__fill_2
XInst_W_IO_switch_matrix.inst_cus_mux41_buf_E2BEGb0 net66 net100 net93 net84 Inst_W_IO_ConfigMem.ConfigBits\[28\]
+ Inst_W_IO_ConfigMem.ConfigBits\[29\] VGND VGND VPWR VPWR Inst_W_IO_switch_matrix.E2BEGb0
+ sky130_fd_sc_hd__mux4_1
X_64_ data_outbuf_16.X VGND VGND VPWR VPWR net170 sky130_fd_sc_hd__clkbuf_1
XFILLER_0_24_41 VGND VGND VPWR VPWR sky130_ef_sc_hd__decap_12
XInst_B_IO_1_bidirectional_frame_config_pass._1_ UserCLK net2 VGND VGND VPWR VPWR
+ Inst_B_IO_1_bidirectional_frame_config_pass.Q sky130_fd_sc_hd__dfxtp_1
Xoutput200 net200 VGND VGND VPWR VPWR FrameStrobe_O[14] sky130_fd_sc_hd__buf_2
Xoutput211 net211 VGND VGND VPWR VPWR FrameStrobe_O[6] sky130_fd_sc_hd__buf_2
XFILLER_0_57_3 VGND VGND VPWR VPWR sky130_ef_sc_hd__decap_12
XFILLER_0_65_81 VGND VGND VPWR VPWR sky130_ef_sc_hd__decap_12
XFILLER_0_29_19 VGND VGND VPWR VPWR sky130_ef_sc_hd__decap_12
XFILLER_0_60_141 VGND VGND VPWR VPWR sky130_fd_sc_hd__fill_1
XFILLER_0_28_105 VGND VGND VPWR VPWR sky130_fd_sc_hd__decap_8
XFILLER_0_10_65 VGND VGND VPWR VPWR sky130_ef_sc_hd__decap_12
XFILLER_0_29_7 VGND VGND VPWR VPWR sky130_ef_sc_hd__decap_12
X_47_ Inst_W_IO_switch_matrix.EE4BEG15 VGND VGND VPWR VPWR net153 sky130_fd_sc_hd__clkbuf_1
XInst_W_IO_switch_matrix.inst_cus_mux41_buf_E6BEG0 net57 net89 net77 Inst_A_IO_1_bidirectional_frame_config_pass.O
+ Inst_W_IO_ConfigMem.ConfigBits\[76\] Inst_W_IO_ConfigMem.ConfigBits\[77\] VGND VGND
+ VPWR VPWR Inst_W_IO_switch_matrix.E6BEG0 sky130_fd_sc_hd__mux4_1
XFILLER_0_51_61 VGND VGND VPWR VPWR sky130_fd_sc_hd__fill_1
XFILLER_0_42_141 VGND VGND VPWR VPWR sky130_fd_sc_hd__fill_1
XFILLER_0_76_80 VGND VGND VPWR VPWR sky130_fd_sc_hd__fill_1
Xdata_inbuf_30._0_ net26 VGND VGND VPWR VPWR data_inbuf_30.X sky130_fd_sc_hd__clkbuf_1
XFILLER_0_72_27 VGND VGND VPWR VPWR sky130_fd_sc_hd__fill_1
Xdata_inbuf_21._0_ net16 VGND VGND VPWR VPWR data_inbuf_21.X sky130_fd_sc_hd__clkbuf_1
XFILLER_0_21_42 VGND VGND VPWR VPWR sky130_ef_sc_hd__decap_12
XFILLER_0_24_141 VGND VGND VPWR VPWR sky130_fd_sc_hd__fill_1
XInst_W_IO_switch_matrix.inst_cus_mux81_buf_A_T.cus_mux21_inst.break_comb_loop_inst1._0_
+ Inst_W_IO_switch_matrix.inst_cus_mux81_buf_A_T.cus_mux21_inst.A1 VGND VGND VPWR
+ VPWR Inst_W_IO_switch_matrix.inst_cus_mux81_buf_A_T.cus_mux21_inst.AIN\[1\] sky130_fd_sc_hd__clkbuf_1
Xstrobe_inbuf_0._0_ net35 VGND VGND VPWR VPWR strobe_inbuf_0.X sky130_fd_sc_hd__clkbuf_1
Xdata_inbuf_12._0_ net6 VGND VGND VPWR VPWR data_inbuf_12.X sky130_fd_sc_hd__clkbuf_1
XTAP_339 VGND VPWR sky130_fd_sc_hd__tapvpwrvgnd_1
XTAP_328 VGND VPWR sky130_fd_sc_hd__tapvpwrvgnd_1
XTAP_317 VGND VPWR sky130_fd_sc_hd__tapvpwrvgnd_1
XTAP_306 VGND VPWR sky130_fd_sc_hd__tapvpwrvgnd_1
XFILLER_0_73_81 VGND VGND VPWR VPWR sky130_ef_sc_hd__decap_12
Xinput100 WW4END[7] VGND VGND VPWR VPWR net100 sky130_fd_sc_hd__buf_1
Xstrobe_outbuf_15._0_ strobe_inbuf_15.X VGND VGND VPWR VPWR strobe_outbuf_15.X sky130_fd_sc_hd__clkbuf_1
XPHY_150 VGND VGND VPWR VPWR sky130_fd_sc_hd__decap_3
XTAP_169 VGND VPWR sky130_fd_sc_hd__tapvpwrvgnd_1
XTAP_158 VGND VPWR sky130_fd_sc_hd__tapvpwrvgnd_1
XFILLER_0_4_141 VGND VGND VPWR VPWR sky130_fd_sc_hd__fill_1
XFILLER_0_48_29 VGND VGND VPWR VPWR sky130_ef_sc_hd__decap_12
XInst_W_IO_ConfigMem.Inst_frame0_bit3 net28 net35 VGND VGND VPWR VPWR Inst_W_IO_ConfigMem.ConfigBits\[85\]
+ Inst_W_IO_ConfigMem.Inst_frame0_bit3/Q_N sky130_fd_sc_hd__dlxbp_1
X_80_ strobe_outbuf_0.X VGND VGND VPWR VPWR net195 sky130_fd_sc_hd__clkbuf_1
XFILLER_0_1_100 VGND VGND VPWR VPWR sky130_fd_sc_hd__decap_4
XFILLER_0_1_144 VGND VGND VPWR VPWR sky130_fd_sc_hd__fill_2
XFILLER_0_59_7 VGND VGND VPWR VPWR sky130_ef_sc_hd__decap_12
XFILLER_0_54_83 VGND VGND VPWR VPWR sky130_fd_sc_hd__fill_1
XFILLER_0_70_82 VGND VGND VPWR VPWR sky130_fd_sc_hd__fill_2
XFILLER_0_70_71 VGND VGND VPWR VPWR sky130_fd_sc_hd__decap_4
XFILLER_0_64_117 VGND VGND VPWR VPWR sky130_fd_sc_hd__decap_3
XFILLER_0_54_94 VGND VGND VPWR VPWR sky130_fd_sc_hd__decap_3
XFILLER_0_50_19 VGND VGND VPWR VPWR sky130_fd_sc_hd__decap_8
XInst_W_IO_switch_matrix.inst_cus_mux81_buf_A_T.cus_mux41_buf_inst1_218 VGND VGND
+ VPWR VPWR net218 Inst_W_IO_switch_matrix.inst_cus_mux81_buf_A_T.cus_mux41_buf_inst1_218/LO
+ sky130_fd_sc_hd__conb_1
XInst_W_IO_switch_matrix.inst_cus_mux41_buf_E2BEGb1 net65 net99 net92 net83 Inst_W_IO_ConfigMem.ConfigBits\[30\]
+ Inst_W_IO_ConfigMem.ConfigBits\[31\] VGND VGND VPWR VPWR Inst_W_IO_switch_matrix.E2BEGb1
+ sky130_fd_sc_hd__mux4_1
X_63_ data_outbuf_15.X VGND VGND VPWR VPWR net169 sky130_fd_sc_hd__clkbuf_1
XInst_B_IO_1_bidirectional_frame_config_pass._0_ Inst_B_IO_1_bidirectional_frame_config_pass.T
+ VGND VGND VPWR VPWR net110 sky130_fd_sc_hd__inv_2
XFILLER_0_24_53 VGND VGND VPWR VPWR sky130_fd_sc_hd__decap_4
Xoutput201 net201 VGND VGND VPWR VPWR FrameStrobe_O[15] sky130_fd_sc_hd__clkbuf_4
Xoutput212 net212 VGND VGND VPWR VPWR FrameStrobe_O[7] sky130_fd_sc_hd__buf_2
XFILLER_0_40_85 VGND VGND VPWR VPWR sky130_fd_sc_hd__decap_6
XFILLER_0_4_85 VGND VGND VPWR VPWR sky130_ef_sc_hd__decap_12
XFILLER_0_4_41 VGND VGND VPWR VPWR sky130_ef_sc_hd__decap_12
XFILLER_0_65_93 VGND VGND VPWR VPWR sky130_fd_sc_hd__decap_3
XFILLER_0_52_109 VGND VGND VPWR VPWR sky130_fd_sc_hd__fill_2
Xstrobe_inbuf_12._0_ net38 VGND VGND VPWR VPWR strobe_inbuf_12.X sky130_fd_sc_hd__clkbuf_2
XFILLER_0_10_77 VGND VGND VPWR VPWR sky130_fd_sc_hd__decap_6
XFILLER_0_19_53 VGND VGND VPWR VPWR sky130_fd_sc_hd__decap_3
XInst_W_IO_switch_matrix.inst_cus_mux21_E1BEG3.break_comb_loop_inst1._0_ Inst_B_IO_1_bidirectional_frame_config_pass.Q
+ VGND VGND VPWR VPWR Inst_W_IO_switch_matrix.inst_cus_mux21_E1BEG3.AIN\[1\] sky130_fd_sc_hd__clkbuf_1
XFILLER_0_35_63 VGND VGND VPWR VPWR sky130_fd_sc_hd__fill_2
X_46_ Inst_W_IO_switch_matrix.EE4BEG14 VGND VGND VPWR VPWR net152 sky130_fd_sc_hd__clkbuf_1
XInst_W_IO_switch_matrix.inst_cus_mux41_buf_E6BEG1 net58 net88 net76 Inst_B_IO_1_bidirectional_frame_config_pass.O
+ Inst_W_IO_ConfigMem.ConfigBits\[78\] Inst_W_IO_ConfigMem.ConfigBits\[79\] VGND VGND
+ VPWR VPWR Inst_W_IO_switch_matrix.E6BEG1 sky130_fd_sc_hd__mux4_1
XFILLER_0_51_51 VGND VGND VPWR VPWR sky130_fd_sc_hd__decap_4
XFILLER_0_76_92 VGND VGND VPWR VPWR sky130_fd_sc_hd__decap_4
XFILLER_0_56_29 VGND VGND VPWR VPWR sky130_ef_sc_hd__decap_12
XFILLER_0_21_54 VGND VGND VPWR VPWR sky130_fd_sc_hd__fill_2
XFILLER_0_46_73 VGND VGND VPWR VPWR sky130_fd_sc_hd__decap_8
XFILLER_0_1_31 VGND VGND VPWR VPWR sky130_fd_sc_hd__fill_1
XFILLER_0_1_53 VGND VGND VPWR VPWR sky130_fd_sc_hd__decap_3
X_29_ Inst_W_IO_switch_matrix.E6BEG9 VGND VGND VPWR VPWR net146 sky130_fd_sc_hd__clkbuf_1
XFILLER_0_62_83 VGND VGND VPWR VPWR sky130_fd_sc_hd__fill_1
Xdata_inbuf_4._0_ net29 VGND VGND VPWR VPWR data_inbuf_4.X sky130_fd_sc_hd__clkbuf_1
XTAP_329 VGND VPWR sky130_fd_sc_hd__tapvpwrvgnd_1
XTAP_318 VGND VPWR sky130_fd_sc_hd__tapvpwrvgnd_1
XTAP_307 VGND VPWR sky130_fd_sc_hd__tapvpwrvgnd_1
XFILLER_0_73_93 VGND VGND VPWR VPWR sky130_ef_sc_hd__decap_12
Xinput101 WW4END[8] VGND VGND VPWR VPWR net101 sky130_fd_sc_hd__buf_1
XFILLER_0_53_19 VGND VGND VPWR VPWR sky130_ef_sc_hd__decap_12
XPHY_151 VGND VGND VPWR VPWR sky130_fd_sc_hd__decap_3
XPHY_140 VGND VGND VPWR VPWR sky130_fd_sc_hd__decap_3
XTAP_159 VGND VPWR sky130_fd_sc_hd__tapvpwrvgnd_1
XFILLER_0_27_31 VGND VGND VPWR VPWR sky130_ef_sc_hd__decap_12
XFILLER_0_76_104 VGND VGND VPWR VPWR sky130_fd_sc_hd__fill_1
XFILLER_0_64_29 VGND VGND VPWR VPWR sky130_ef_sc_hd__decap_12
XInst_W_IO_ConfigMem.Inst_frame0_bit4 net29 net35 VGND VGND VPWR VPWR Inst_W_IO_ConfigMem.ConfigBits\[86\]
+ Inst_W_IO_ConfigMem.Inst_frame0_bit4/Q_N sky130_fd_sc_hd__dlxbp_1
XFILLER_0_38_41 VGND VGND VPWR VPWR sky130_fd_sc_hd__decap_6
XFILLER_0_38_85 VGND VGND VPWR VPWR sky130_ef_sc_hd__decap_12
XFILLER_0_70_94 VGND VGND VPWR VPWR sky130_ef_sc_hd__decap_12
XInst_W_IO_switch_matrix.inst_cus_mux41_buf_E2BEGb2 net64 net98 net91 net82 Inst_W_IO_ConfigMem.ConfigBits\[32\]
+ Inst_W_IO_ConfigMem.ConfigBits\[33\] VGND VGND VPWR VPWR Inst_W_IO_switch_matrix.E2BEGb2
+ sky130_fd_sc_hd__mux4_1
X_62_ data_outbuf_14.X VGND VGND VPWR VPWR net168 sky130_fd_sc_hd__clkbuf_1
Xoutput202 net202 VGND VGND VPWR VPWR FrameStrobe_O[16] sky130_fd_sc_hd__buf_2
Xoutput213 net213 VGND VGND VPWR VPWR FrameStrobe_O[8] sky130_fd_sc_hd__buf_2
XFILLER_0_71_7 VGND VGND VPWR VPWR sky130_ef_sc_hd__decap_12
XFILLER_0_65_50 VGND VGND VPWR VPWR sky130_fd_sc_hd__decap_6
XFILLER_0_4_97 VGND VGND VPWR VPWR sky130_ef_sc_hd__decap_12
XFILLER_0_4_53 VGND VGND VPWR VPWR sky130_ef_sc_hd__decap_12
XFILLER_0_60_132 VGND VGND VPWR VPWR sky130_fd_sc_hd__fill_2
XFILLER_0_51_110 VGND VGND VPWR VPWR sky130_fd_sc_hd__fill_2
Xdata_outbuf_31._0_ data_inbuf_31.X VGND VGND VPWR VPWR data_outbuf_31.X sky130_fd_sc_hd__clkbuf_1
XFILLER_0_19_21 VGND VGND VPWR VPWR sky130_ef_sc_hd__decap_12
XFILLER_0_19_76 VGND VGND VPWR VPWR sky130_fd_sc_hd__decap_8
XFILLER_0_35_31 VGND VGND VPWR VPWR sky130_ef_sc_hd__decap_12
X_45_ Inst_W_IO_switch_matrix.EE4BEG13 VGND VGND VPWR VPWR net151 sky130_fd_sc_hd__clkbuf_1
XInst_W_IO_switch_matrix.inst_cus_mux41_buf_E6BEG2 net100 net93 net84 Inst_A_IO_1_bidirectional_frame_config_pass.O
+ Inst_W_IO_ConfigMem.ConfigBits\[80\] Inst_W_IO_ConfigMem.ConfigBits\[81\] VGND VGND
+ VPWR VPWR Inst_W_IO_switch_matrix.E6BEG2 sky130_fd_sc_hd__mux4_1
Xdata_outbuf_22._0_ data_inbuf_22.X VGND VGND VPWR VPWR data_outbuf_22.X sky130_fd_sc_hd__clkbuf_1
XFILLER_0_56_19 VGND VGND VPWR VPWR sky130_fd_sc_hd__decap_8
Xdata_outbuf_13._0_ data_inbuf_13.X VGND VGND VPWR VPWR data_outbuf_13.X sky130_fd_sc_hd__clkbuf_1
XFILLER_0_72_29 VGND VGND VPWR VPWR sky130_ef_sc_hd__decap_12
XFILLER_0_34_7 VGND VGND VPWR VPWR sky130_ef_sc_hd__decap_12
XFILLER_0_46_41 VGND VGND VPWR VPWR sky130_ef_sc_hd__decap_12
XFILLER_0_46_85 VGND VGND VPWR VPWR sky130_fd_sc_hd__decap_8
X_28_ Inst_W_IO_switch_matrix.E6BEG8 VGND VGND VPWR VPWR net145 sky130_fd_sc_hd__clkbuf_1
XFILLER_0_1_76 VGND VGND VPWR VPWR sky130_fd_sc_hd__decap_4
XTAP_319 VGND VPWR sky130_fd_sc_hd__tapvpwrvgnd_1
XFILLER_0_21_113 VGND VGND VPWR VPWR sky130_fd_sc_hd__decap_3
XTAP_308 VGND VPWR sky130_fd_sc_hd__tapvpwrvgnd_1
XFILLER_0_16_88 VGND VGND VPWR VPWR sky130_fd_sc_hd__fill_1
XFILLER_0_57_51 VGND VGND VPWR VPWR sky130_fd_sc_hd__decap_4
Xinput102 WW4END[9] VGND VGND VPWR VPWR net102 sky130_fd_sc_hd__dlymetal6s2s_1
XPHY_152 VGND VGND VPWR VPWR sky130_fd_sc_hd__decap_3
XPHY_141 VGND VGND VPWR VPWR sky130_fd_sc_hd__decap_3
XPHY_130 VGND VGND VPWR VPWR sky130_fd_sc_hd__decap_3
XFILLER_0_76_116 VGND VGND VPWR VPWR sky130_fd_sc_hd__decap_4
XFILLER_0_27_43 VGND VGND VPWR VPWR sky130_ef_sc_hd__decap_12
XFILLER_0_43_31 VGND VGND VPWR VPWR sky130_ef_sc_hd__decap_12
XFILLER_0_68_83 VGND VGND VPWR VPWR sky130_fd_sc_hd__fill_1
XFILLER_0_67_116 VGND VGND VPWR VPWR sky130_fd_sc_hd__fill_1
XFILLER_0_67_105 VGND VGND VPWR VPWR sky130_fd_sc_hd__decap_6
XFILLER_0_64_19 VGND VGND VPWR VPWR sky130_fd_sc_hd__decap_8
XInst_W_IO_ConfigMem.Inst_frame0_bit5 net30 net35 VGND VGND VPWR VPWR Inst_W_IO_ConfigMem.ConfigBits\[87\]
+ Inst_W_IO_ConfigMem.Inst_frame0_bit5/Q_N sky130_fd_sc_hd__dlxbp_1
XFILLER_0_13_67 VGND VGND VPWR VPWR sky130_fd_sc_hd__decap_8
XInst_W_IO_switch_matrix.inst_cus_mux161_buf_B_I.cus_mux41_buf_inst0 net67 net68 net69
+ net70 Inst_W_IO_ConfigMem.ConfigBits\[107\] Inst_W_IO_ConfigMem.ConfigBits\[108\]
+ VGND VGND VPWR VPWR Inst_W_IO_switch_matrix.inst_cus_mux161_buf_B_I.cus_mux41_buf_out0
+ sky130_fd_sc_hd__mux4_1
XFILLER_0_1_124 VGND VGND VPWR VPWR sky130_fd_sc_hd__decap_4
XFILLER_0_38_97 VGND VGND VPWR VPWR sky130_fd_sc_hd__decap_4
XFILLER_0_54_41 VGND VGND VPWR VPWR sky130_ef_sc_hd__decap_12
XFILLER_0_54_85 VGND VGND VPWR VPWR sky130_fd_sc_hd__decap_6
XFILLER_0_72_141 VGND VGND VPWR VPWR sky130_fd_sc_hd__decap_4
XInst_W_IO_switch_matrix.inst_cus_mux41_buf_E2BEGb3 net63 net97 net90 net81 Inst_W_IO_ConfigMem.ConfigBits\[34\]
+ Inst_W_IO_ConfigMem.ConfigBits\[35\] VGND VGND VPWR VPWR Inst_W_IO_switch_matrix.E2BEGb3
+ sky130_fd_sc_hd__mux4_1
XFILLER_0_59_19 VGND VGND VPWR VPWR sky130_ef_sc_hd__decap_12
X_61_ data_outbuf_13.X VGND VGND VPWR VPWR net167 sky130_fd_sc_hd__clkbuf_1
XFILLER_0_54_141 VGND VGND VPWR VPWR sky130_fd_sc_hd__fill_1
Xoutput203 net203 VGND VGND VPWR VPWR FrameStrobe_O[17] sky130_fd_sc_hd__buf_2
Xoutput214 net214 VGND VGND VPWR VPWR FrameStrobe_O[9] sky130_fd_sc_hd__buf_2
XFILLER_0_64_7 VGND VGND VPWR VPWR sky130_ef_sc_hd__decap_12
XFILLER_0_4_65 VGND VGND VPWR VPWR sky130_ef_sc_hd__decap_12
Xdata_outbuf_0._0_ data_inbuf_0.X VGND VGND VPWR VPWR data_outbuf_0.X sky130_fd_sc_hd__clkbuf_1
XFILLER_0_36_141 VGND VGND VPWR VPWR sky130_fd_sc_hd__fill_1
XFILLER_0_51_122 VGND VGND VPWR VPWR sky130_fd_sc_hd__fill_1
XFILLER_0_51_144 VGND VGND VPWR VPWR sky130_fd_sc_hd__fill_2
XInst_W_IO_switch_matrix.inst_cus_mux81_buf_B_T.cus_mux21_inst._4_ Inst_W_IO_ConfigMem.ConfigBits\[113\]
+ Inst_W_IO_switch_matrix.inst_cus_mux81_buf_B_T.cus_mux21_inst._0_ Inst_W_IO_switch_matrix.inst_cus_mux81_buf_B_T.cus_mux21_inst._1_
+ VGND VGND VPWR VPWR Inst_B_IO_1_bidirectional_frame_config_pass.T sky130_fd_sc_hd__o21ai_1
XFILLER_0_19_33 VGND VGND VPWR VPWR sky130_ef_sc_hd__decap_12
XFILLER_0_19_99 VGND VGND VPWR VPWR sky130_ef_sc_hd__decap_12
XFILLER_0_35_43 VGND VGND VPWR VPWR sky130_fd_sc_hd__decap_3
X_44_ Inst_W_IO_switch_matrix.EE4BEG12 VGND VGND VPWR VPWR net150 sky130_fd_sc_hd__clkbuf_1
Xdata_inbuf_24._0_ net19 VGND VGND VPWR VPWR data_inbuf_24.X sky130_fd_sc_hd__clkbuf_1
XInst_W_IO_switch_matrix.inst_cus_mux41_buf_E6BEG3 net99 net92 net83 Inst_B_IO_1_bidirectional_frame_config_pass.O
+ Inst_W_IO_ConfigMem.ConfigBits\[82\] Inst_W_IO_ConfigMem.ConfigBits\[83\] VGND VGND
+ VPWR VPWR Inst_W_IO_switch_matrix.E6BEG3 sky130_fd_sc_hd__mux4_1
XFILLER_0_42_133 VGND VGND VPWR VPWR sky130_fd_sc_hd__fill_1
XFILLER_0_76_72 VGND VGND VPWR VPWR sky130_fd_sc_hd__fill_1
XFILLER_0_76_61 VGND VGND VPWR VPWR sky130_fd_sc_hd__decap_4
Xstrobe_inbuf_3._0_ net48 VGND VGND VPWR VPWR strobe_inbuf_3.X sky130_fd_sc_hd__clkbuf_1
XFILLER_0_18_141 VGND VGND VPWR VPWR sky130_fd_sc_hd__fill_2
Xdata_inbuf_15._0_ net9 VGND VGND VPWR VPWR data_inbuf_15.X sky130_fd_sc_hd__clkbuf_1
XFILLER_0_24_100 VGND VGND VPWR VPWR sky130_fd_sc_hd__fill_1
XFILLER_0_27_7 VGND VGND VPWR VPWR sky130_ef_sc_hd__decap_12
XFILLER_0_46_53 VGND VGND VPWR VPWR sky130_fd_sc_hd__decap_4
X_27_ Inst_W_IO_switch_matrix.E6BEG7 VGND VGND VPWR VPWR net144 sky130_fd_sc_hd__clkbuf_1
XFILLER_0_62_41 VGND VGND VPWR VPWR sky130_ef_sc_hd__decap_12
XFILLER_0_62_85 VGND VGND VPWR VPWR sky130_fd_sc_hd__decap_6
XFILLER_0_67_19 VGND VGND VPWR VPWR sky130_ef_sc_hd__decap_12
XTAP_309 VGND VPWR sky130_fd_sc_hd__tapvpwrvgnd_1
Xstrobe_outbuf_18._0_ strobe_inbuf_18.X VGND VGND VPWR VPWR strobe_outbuf_18.X sky130_fd_sc_hd__clkbuf_1
XFILLER_0_18_3 VGND VGND VPWR VPWR sky130_ef_sc_hd__decap_12
XPHY_153 VGND VGND VPWR VPWR sky130_fd_sc_hd__decap_3
XPHY_142 VGND VGND VPWR VPWR sky130_fd_sc_hd__decap_3
XPHY_131 VGND VGND VPWR VPWR sky130_fd_sc_hd__decap_3
XPHY_120 VGND VGND VPWR VPWR sky130_fd_sc_hd__decap_3
XPHY_0 VGND VGND VPWR VPWR sky130_fd_sc_hd__decap_3
XFILLER_0_27_55 VGND VGND VPWR VPWR sky130_fd_sc_hd__fill_1
XFILLER_0_43_43 VGND VGND VPWR VPWR sky130_ef_sc_hd__decap_12
XFILLER_0_7_3 VGND VGND VPWR VPWR sky130_fd_sc_hd__fill_2
XInst_W_IO_ConfigMem.Inst_frame0_bit6 net31 net35 VGND VGND VPWR VPWR Inst_W_IO_ConfigMem.ConfigBits\[88\]
+ Inst_W_IO_ConfigMem.Inst_frame0_bit6/Q_N sky130_fd_sc_hd__dlxbp_1
XInst_W_IO_switch_matrix.inst_cus_mux161_buf_B_I.cus_mux41_buf_inst1 net71 net72 net73
+ net74 Inst_W_IO_ConfigMem.ConfigBits\[107\] Inst_W_IO_ConfigMem.ConfigBits\[108\]
+ VGND VGND VPWR VPWR Inst_W_IO_switch_matrix.inst_cus_mux161_buf_B_I.cus_mux41_buf_out1
+ sky130_fd_sc_hd__mux4_1
Xstrobe_outbuf_0._0_ strobe_inbuf_0.X VGND VGND VPWR VPWR strobe_outbuf_0.X sky130_fd_sc_hd__clkbuf_1
XFILLER_0_70_41 VGND VGND VPWR VPWR sky130_ef_sc_hd__decap_12
XFILLER_0_64_109 VGND VGND VPWR VPWR sky130_fd_sc_hd__decap_8
XFILLER_0_54_53 VGND VGND VPWR VPWR sky130_ef_sc_hd__decap_12
Xstrobe_inbuf_15._0_ net41 VGND VGND VPWR VPWR strobe_inbuf_15.X sky130_fd_sc_hd__clkbuf_2
XInst_W_IO_switch_matrix.inst_cus_mux41_buf_E2BEGb4 net62 net96 net89 net80 Inst_W_IO_ConfigMem.ConfigBits\[36\]
+ Inst_W_IO_ConfigMem.ConfigBits\[37\] VGND VGND VPWR VPWR Inst_W_IO_switch_matrix.E2BEGb4