*SPEF "ieee 1481-1999"
*DESIGN "S_term_RAM_IO"
*DATE "11:11:11 Fri 11 11, 1111"
*VENDOR "OpenRCX"
*PROGRAM "Parallel Extraction"
*VERSION "1.0"
*DESIGN_FLOW "NAME_SCOPE LOCAL" "PIN_CAP NONE"
*DIVIDER /
*DELIMITER :
*BUS_DELIMITER []
*T_UNIT 1 NS
*C_UNIT 1 PF
*R_UNIT 1 OHM
*L_UNIT 1 HENRY

*NAME_MAP
*1 FrameStrobe[0]
*2 FrameStrobe[10]
*3 FrameStrobe[11]
*4 FrameStrobe[12]
*5 FrameStrobe[13]
*6 FrameStrobe[14]
*7 FrameStrobe[15]
*8 FrameStrobe[16]
*9 FrameStrobe[17]
*10 FrameStrobe[18]
*11 FrameStrobe[19]
*12 FrameStrobe[1]
*13 FrameStrobe[2]
*14 FrameStrobe[3]
*15 FrameStrobe[4]
*16 FrameStrobe[5]
*17 FrameStrobe[6]
*18 FrameStrobe[7]
*19 FrameStrobe[8]
*20 FrameStrobe[9]
*21 FrameStrobe_O[0]
*22 FrameStrobe_O[10]
*23 FrameStrobe_O[11]
*24 FrameStrobe_O[12]
*25 FrameStrobe_O[13]
*26 FrameStrobe_O[14]
*27 FrameStrobe_O[15]
*28 FrameStrobe_O[16]
*29 FrameStrobe_O[17]
*30 FrameStrobe_O[18]
*31 FrameStrobe_O[19]
*32 FrameStrobe_O[1]
*33 FrameStrobe_O[2]
*34 FrameStrobe_O[3]
*35 FrameStrobe_O[4]
*36 FrameStrobe_O[5]
*37 FrameStrobe_O[6]
*38 FrameStrobe_O[7]
*39 FrameStrobe_O[8]
*40 FrameStrobe_O[9]
*41 N1BEG[0]
*42 N1BEG[1]
*43 N1BEG[2]
*44 N1BEG[3]
*45 N2BEG[0]
*46 N2BEG[1]
*47 N2BEG[2]
*48 N2BEG[3]
*49 N2BEG[4]
*50 N2BEG[5]
*51 N2BEG[6]
*52 N2BEG[7]
*53 N2BEGb[0]
*54 N2BEGb[1]
*55 N2BEGb[2]
*56 N2BEGb[3]
*57 N2BEGb[4]
*58 N2BEGb[5]
*59 N2BEGb[6]
*60 N2BEGb[7]
*61 N4BEG[0]
*62 N4BEG[10]
*63 N4BEG[11]
*64 N4BEG[12]
*65 N4BEG[13]
*66 N4BEG[14]
*67 N4BEG[15]
*68 N4BEG[1]
*69 N4BEG[2]
*70 N4BEG[3]
*71 N4BEG[4]
*72 N4BEG[5]
*73 N4BEG[6]
*74 N4BEG[7]
*75 N4BEG[8]
*76 N4BEG[9]
*77 S1END[0]
*78 S1END[1]
*79 S1END[2]
*80 S1END[3]
*81 S2END[0]
*82 S2END[1]
*83 S2END[2]
*84 S2END[3]
*85 S2END[4]
*86 S2END[5]
*87 S2END[6]
*88 S2END[7]
*89 S2MID[0]
*90 S2MID[1]
*91 S2MID[2]
*92 S2MID[3]
*93 S2MID[4]
*94 S2MID[5]
*95 S2MID[6]
*96 S2MID[7]
*97 S4END[0]
*98 S4END[10]
*99 S4END[11]
*100 S4END[12]
*101 S4END[13]
*102 S4END[14]
*103 S4END[15]
*104 S4END[1]
*105 S4END[2]
*106 S4END[3]
*107 S4END[4]
*108 S4END[5]
*109 S4END[6]
*110 S4END[7]
*111 S4END[8]
*112 S4END[9]
*113 UserCLK
*114 UserCLKo
*117 Inst_S_term_RAM_IO_switch_matrix\.N1BEG0
*118 Inst_S_term_RAM_IO_switch_matrix\.N1BEG1
*119 Inst_S_term_RAM_IO_switch_matrix\.N1BEG2
*120 Inst_S_term_RAM_IO_switch_matrix\.N1BEG3
*121 Inst_S_term_RAM_IO_switch_matrix\.N2BEG0
*122 Inst_S_term_RAM_IO_switch_matrix\.N2BEG1
*123 Inst_S_term_RAM_IO_switch_matrix\.N2BEG2
*124 Inst_S_term_RAM_IO_switch_matrix\.N2BEG3
*125 Inst_S_term_RAM_IO_switch_matrix\.N2BEG4
*126 Inst_S_term_RAM_IO_switch_matrix\.N2BEG5
*127 Inst_S_term_RAM_IO_switch_matrix\.N2BEG6
*128 Inst_S_term_RAM_IO_switch_matrix\.N2BEG7
*129 Inst_S_term_RAM_IO_switch_matrix\.N2BEGb0
*130 Inst_S_term_RAM_IO_switch_matrix\.N2BEGb1
*131 Inst_S_term_RAM_IO_switch_matrix\.N2BEGb2
*132 Inst_S_term_RAM_IO_switch_matrix\.N2BEGb3
*133 Inst_S_term_RAM_IO_switch_matrix\.N2BEGb4
*134 Inst_S_term_RAM_IO_switch_matrix\.N2BEGb5
*135 Inst_S_term_RAM_IO_switch_matrix\.N2BEGb6
*136 Inst_S_term_RAM_IO_switch_matrix\.N2BEGb7
*137 Inst_S_term_RAM_IO_switch_matrix\.N4BEG0
*138 Inst_S_term_RAM_IO_switch_matrix\.N4BEG1
*139 Inst_S_term_RAM_IO_switch_matrix\.N4BEG10
*140 Inst_S_term_RAM_IO_switch_matrix\.N4BEG11
*141 Inst_S_term_RAM_IO_switch_matrix\.N4BEG12
*142 Inst_S_term_RAM_IO_switch_matrix\.N4BEG13
*143 Inst_S_term_RAM_IO_switch_matrix\.N4BEG14
*144 Inst_S_term_RAM_IO_switch_matrix\.N4BEG15
*145 Inst_S_term_RAM_IO_switch_matrix\.N4BEG2
*146 Inst_S_term_RAM_IO_switch_matrix\.N4BEG3
*147 Inst_S_term_RAM_IO_switch_matrix\.N4BEG4
*148 Inst_S_term_RAM_IO_switch_matrix\.N4BEG5
*149 Inst_S_term_RAM_IO_switch_matrix\.N4BEG6
*150 Inst_S_term_RAM_IO_switch_matrix\.N4BEG7
*151 Inst_S_term_RAM_IO_switch_matrix\.N4BEG8
*152 Inst_S_term_RAM_IO_switch_matrix\.N4BEG9
*153 net1
*154 net10
*155 net100
*156 net101
*157 net102
*158 net103
*159 net104
*160 net105
*161 net106
*162 net107
*163 net108
*164 net109
*165 net11
*166 net110
*167 net111
*168 net112
*169 net113
*170 net114
*171 net12
*172 net13
*173 net14
*174 net15
*175 net16
*176 net17
*177 net18
*178 net19
*179 net2
*180 net20
*181 net21
*182 net22
*183 net23
*184 net24
*185 net25
*186 net26
*187 net27
*188 net28
*189 net29
*190 net3
*191 net30
*192 net31
*193 net32
*194 net33
*195 net34
*196 net35
*197 net36
*198 net37
*199 net38
*200 net39
*201 net4
*202 net40
*203 net41
*204 net42
*205 net43
*206 net44
*207 net45
*208 net46
*209 net47
*210 net48
*211 net49
*212 net5
*213 net50
*214 net51
*215 net52
*216 net53
*217 net54
*218 net55
*219 net56
*220 net57
*221 net58
*222 net59
*223 net6
*224 net60
*225 net61
*226 net62
*227 net63
*228 net64
*229 net65
*230 net66
*231 net67
*232 net68
*233 net69
*234 net7
*235 net70
*236 net71
*237 net72
*238 net73
*239 net74
*240 net75
*241 net76
*242 net77
*243 net78
*244 net79
*245 net8
*246 net80
*247 net81
*248 net82
*249 net83
*250 net84
*251 net85
*252 net86
*253 net87
*254 net88
*255 net89
*256 net9
*257 net90
*258 net91
*259 net92
*260 net93
*261 net94
*262 net95
*263 net96
*264 net97
*265 net98
*266 net99
*267 strobe_inbuf_0\.X
*268 strobe_inbuf_1\.X
*269 strobe_inbuf_10\.X
*270 strobe_inbuf_11\.X
*271 strobe_inbuf_12\.X
*272 strobe_inbuf_13\.X
*273 strobe_inbuf_14\.X
*274 strobe_inbuf_15\.X
*275 strobe_inbuf_16\.X
*276 strobe_inbuf_17\.X
*277 strobe_inbuf_18\.X
*278 strobe_inbuf_19\.X
*279 strobe_inbuf_2\.X
*280 strobe_inbuf_3\.X
*281 strobe_inbuf_4\.X
*282 strobe_inbuf_5\.X
*283 strobe_inbuf_6\.X
*284 strobe_inbuf_7\.X
*285 strobe_inbuf_8\.X
*286 strobe_inbuf_9\.X
*287 strobe_outbuf_0\.X
*288 strobe_outbuf_1\.X
*289 strobe_outbuf_10\.X
*290 strobe_outbuf_11\.X
*291 strobe_outbuf_12\.X
*292 strobe_outbuf_13\.X
*293 strobe_outbuf_14\.X
*294 strobe_outbuf_15\.X
*295 strobe_outbuf_16\.X
*296 strobe_outbuf_17\.X
*297 strobe_outbuf_18\.X
*298 strobe_outbuf_19\.X
*299 strobe_outbuf_2\.X
*300 strobe_outbuf_3\.X
*301 strobe_outbuf_4\.X
*302 strobe_outbuf_5\.X
*303 strobe_outbuf_6\.X
*304 strobe_outbuf_7\.X
*305 strobe_outbuf_8\.X
*306 strobe_outbuf_9\.X
*307 FILLER_0_0_100
*308 FILLER_0_0_110
*309 FILLER_0_0_113
*310 FILLER_0_0_122
*311 FILLER_0_0_128
*312 FILLER_0_0_135
*313 FILLER_0_0_139
*314 FILLER_0_0_141
*315 FILLER_0_0_148
*316 FILLER_0_0_15
*317 FILLER_0_0_154
*318 FILLER_0_0_158
*319 FILLER_0_0_166
*320 FILLER_0_0_172
*321 FILLER_0_0_180
*322 FILLER_0_0_184
*323 FILLER_0_0_190
*324 FILLER_0_0_194
*325 FILLER_0_0_200
*326 FILLER_0_0_206
*327 FILLER_0_0_210
*328 FILLER_0_0_218
*329 FILLER_0_0_223
*330 FILLER_0_0_225
*331 FILLER_0_0_23
*332 FILLER_0_0_236
*333 FILLER_0_0_240
*334 FILLER_0_0_244
*335 FILLER_0_0_253
*336 FILLER_0_0_29
*337 FILLER_0_0_37
*338 FILLER_0_0_41
*339 FILLER_0_0_49
*340 FILLER_0_0_54
*341 FILLER_0_0_6
*342 FILLER_0_0_60
*343 FILLER_0_0_70
*344 FILLER_0_0_76
*345 FILLER_0_0_83
*346 FILLER_0_0_85
*347 FILLER_0_0_89
*348 FILLER_0_0_96
*349 FILLER_0_1_102
*350 FILLER_0_1_110
*351 FILLER_0_1_119
*352 FILLER_0_1_128
*353 FILLER_0_1_136
*354 FILLER_0_1_141
*355 FILLER_0_1_149
*356 FILLER_0_1_15
*357 FILLER_0_1_153
*358 FILLER_0_1_165
*359 FILLER_0_1_169
*360 FILLER_0_1_181
*361 FILLER_0_1_189
*362 FILLER_0_1_193
*363 FILLER_0_1_200
*364 FILLER_0_1_212
*365 FILLER_0_1_225
*366 FILLER_0_1_237
*367 FILLER_0_1_249
*368 FILLER_0_1_253
*369 FILLER_0_1_27
*370 FILLER_0_1_3
*371 FILLER_0_1_39
*372 FILLER_0_1_51
*373 FILLER_0_1_55
*374 FILLER_0_1_57
*375 FILLER_0_1_62
*376 FILLER_0_1_70
*377 FILLER_0_1_76
*378 FILLER_0_1_84
*379 FILLER_0_1_89
*380 FILLER_0_1_97
*381 FILLER_0_2_103
*382 FILLER_0_2_108
*383 FILLER_0_2_119
*384 FILLER_0_2_123
*385 FILLER_0_2_131
*386 FILLER_0_2_135
*387 FILLER_0_2_139
*388 FILLER_0_2_141
*389 FILLER_0_2_147
*390 FILLER_0_2_15
*391 FILLER_0_2_155
*392 FILLER_0_2_159
*393 FILLER_0_2_171
*394 FILLER_0_2_183
*395 FILLER_0_2_195
*396 FILLER_0_2_197
*397 FILLER_0_2_206
*398 FILLER_0_2_218
*399 FILLER_0_2_230
*400 FILLER_0_2_242
*401 FILLER_0_2_248
*402 FILLER_0_2_253
*403 FILLER_0_2_27
*404 FILLER_0_2_29
*405 FILLER_0_2_3
*406 FILLER_0_2_41
*407 FILLER_0_2_53
*408 FILLER_0_2_68
*409 FILLER_0_2_76
*410 FILLER_0_2_82
*411 FILLER_0_2_85
*412 FILLER_0_2_91
*413 FILLER_0_2_95
*414 FILLER_0_3_105
*415 FILLER_0_3_111
*416 FILLER_0_3_113
*417 FILLER_0_3_125
*418 FILLER_0_3_137
*419 FILLER_0_3_149
*420 FILLER_0_3_15
*421 FILLER_0_3_161
*422 FILLER_0_3_167
*423 FILLER_0_3_169
*424 FILLER_0_3_181
*425 FILLER_0_3_187
*426 FILLER_0_3_196
*427 FILLER_0_3_208
*428 FILLER_0_3_220
*429 FILLER_0_3_225
*430 FILLER_0_3_237
*431 FILLER_0_3_245
*432 FILLER_0_3_253
*433 FILLER_0_3_27
*434 FILLER_0_3_3
*435 FILLER_0_3_39
*436 FILLER_0_3_51
*437 FILLER_0_3_55
*438 FILLER_0_3_57
*439 FILLER_0_3_69
*440 FILLER_0_3_81
*441 FILLER_0_3_93
*442 FILLER_0_4_10
*443 FILLER_0_4_109
*444 FILLER_0_4_121
*445 FILLER_0_4_133
*446 FILLER_0_4_139
*447 FILLER_0_4_141
*448 FILLER_0_4_153
*449 FILLER_0_4_165
*450 FILLER_0_4_177
*451 FILLER_0_4_189
*452 FILLER_0_4_193
*453 FILLER_0_4_197
*454 FILLER_0_4_202
*455 FILLER_0_4_214
*456 FILLER_0_4_22
*457 FILLER_0_4_226
*458 FILLER_0_4_234
*459 FILLER_0_4_238
*460 FILLER_0_4_242
*461 FILLER_0_4_253
*462 FILLER_0_4_29
*463 FILLER_0_4_3
*464 FILLER_0_4_41
*465 FILLER_0_4_53
*466 FILLER_0_4_65
*467 FILLER_0_4_77
*468 FILLER_0_4_83
*469 FILLER_0_4_85
*470 FILLER_0_4_97
*471 FILLER_0_5_105
*472 FILLER_0_5_111
*473 FILLER_0_5_113
*474 FILLER_0_5_125
*475 FILLER_0_5_137
*476 FILLER_0_5_149
*477 FILLER_0_5_161
*478 FILLER_0_5_167
*479 FILLER_0_5_169
*480 FILLER_0_5_17
*481 FILLER_0_5_181
*482 FILLER_0_5_193
*483 FILLER_0_5_200
*484 FILLER_0_5_209
*485 FILLER_0_5_221
*486 FILLER_0_5_225
*487 FILLER_0_5_237
*488 FILLER_0_5_253
*489 FILLER_0_5_29
*490 FILLER_0_5_41
*491 FILLER_0_5_53
*492 FILLER_0_5_57
*493 FILLER_0_5_69
*494 FILLER_0_5_81
*495 FILLER_0_5_9
*496 FILLER_0_5_93
*497 FILLER_0_6_109
*498 FILLER_0_6_121
*499 FILLER_0_6_133
*500 FILLER_0_6_139
*501 FILLER_0_6_141
*502 FILLER_0_6_15
*503 FILLER_0_6_153
*504 FILLER_0_6_165
*505 FILLER_0_6_174
*506 FILLER_0_6_186
*507 FILLER_0_6_194
*508 FILLER_0_6_200
*509 FILLER_0_6_212
*510 FILLER_0_6_220
*511 FILLER_0_6_25
*512 FILLER_0_6_253
*513 FILLER_0_6_29
*514 FILLER_0_6_37
*515 FILLER_0_6_41
*516 FILLER_0_6_53
*517 FILLER_0_6_65
*518 FILLER_0_6_77
*519 FILLER_0_6_83
*520 FILLER_0_6_85
*521 FILLER_0_6_97
*522 FILLER_0_7_102
*523 FILLER_0_7_111
*524 FILLER_0_7_116
*525 FILLER_0_7_128
*526 FILLER_0_7_140
*527 FILLER_0_7_152
*528 FILLER_0_7_164
*529 FILLER_0_7_169
*530 FILLER_0_7_181
*531 FILLER_0_7_201
*532 FILLER_0_7_209
*533 FILLER_0_7_216
*534 FILLER_0_7_225
*535 FILLER_0_7_23
*536 FILLER_0_7_251
*537 FILLER_0_7_3
*538 FILLER_0_7_40
*539 FILLER_0_7_47
*540 FILLER_0_7_54
*541 FILLER_0_7_66
*542 FILLER_0_7_85
*543 FILLER_0_7_90
*544 FILLER_0_8_123
*545 FILLER_0_8_128
*546 FILLER_0_8_135
*547 FILLER_0_8_139
*548 FILLER_0_8_141
*549 FILLER_0_8_150
*550 FILLER_0_8_154
*551 FILLER_0_8_194
*552 FILLER_0_8_224
*553 FILLER_0_8_253
*554 FILLER_0_8_29
*555 FILLER_0_8_3
*556 FILLER_0_8_70
*557 FILLER_0_8_85
*558 FILLER_0_9_206
*559 FILLER_0_9_219
*560 FILLER_0_9_249
*561 FILLER_0_9_253
*562 FILLER_0_9_3
*563 FILLER_0_9_61
*564 FILLER_0_9_85
*565 Inst_S_term_RAM_IO_switch_matrix\._00_
*566 Inst_S_term_RAM_IO_switch_matrix\._01_
*567 Inst_S_term_RAM_IO_switch_matrix\._02_
*568 Inst_S_term_RAM_IO_switch_matrix\._03_
*569 Inst_S_term_RAM_IO_switch_matrix\._04_
*570 Inst_S_term_RAM_IO_switch_matrix\._05_
*571 Inst_S_term_RAM_IO_switch_matrix\._06_
*572 Inst_S_term_RAM_IO_switch_matrix\._07_
*573 Inst_S_term_RAM_IO_switch_matrix\._08_
*574 Inst_S_term_RAM_IO_switch_matrix\._09_
*575 Inst_S_term_RAM_IO_switch_matrix\._10_
*576 Inst_S_term_RAM_IO_switch_matrix\._11_
*577 Inst_S_term_RAM_IO_switch_matrix\._12_
*578 Inst_S_term_RAM_IO_switch_matrix\._13_
*579 Inst_S_term_RAM_IO_switch_matrix\._14_
*580 Inst_S_term_RAM_IO_switch_matrix\._15_
*581 Inst_S_term_RAM_IO_switch_matrix\._16_
*582 Inst_S_term_RAM_IO_switch_matrix\._17_
*583 Inst_S_term_RAM_IO_switch_matrix\._18_
*584 Inst_S_term_RAM_IO_switch_matrix\._19_
*585 Inst_S_term_RAM_IO_switch_matrix\._20_
*586 Inst_S_term_RAM_IO_switch_matrix\._21_
*587 Inst_S_term_RAM_IO_switch_matrix\._22_
*588 Inst_S_term_RAM_IO_switch_matrix\._23_
*589 Inst_S_term_RAM_IO_switch_matrix\._24_
*590 Inst_S_term_RAM_IO_switch_matrix\._25_
*591 Inst_S_term_RAM_IO_switch_matrix\._26_
*592 Inst_S_term_RAM_IO_switch_matrix\._27_
*593 Inst_S_term_RAM_IO_switch_matrix\._28_
*594 Inst_S_term_RAM_IO_switch_matrix\._29_
*595 Inst_S_term_RAM_IO_switch_matrix\._30_
*596 Inst_S_term_RAM_IO_switch_matrix\._31_
*597 Inst_S_term_RAM_IO_switch_matrix\._32_
*598 Inst_S_term_RAM_IO_switch_matrix\._33_
*599 Inst_S_term_RAM_IO_switch_matrix\._34_
*600 Inst_S_term_RAM_IO_switch_matrix\._35_
*601 PHY_0
*602 PHY_1
*603 PHY_10
*604 PHY_11
*605 PHY_12
*606 PHY_13
*607 PHY_14
*608 PHY_15
*609 PHY_16
*610 PHY_17
*611 PHY_18
*612 PHY_19
*613 PHY_2
*614 PHY_3
*615 PHY_4
*616 PHY_5
*617 PHY_6
*618 PHY_7
*619 PHY_8
*620 PHY_9
*621 TAP_20
*622 TAP_21
*623 TAP_22
*624 TAP_23
*625 TAP_24
*626 TAP_25
*627 TAP_26
*628 TAP_27
*629 TAP_28
*630 TAP_29
*631 TAP_30
*632 TAP_31
*633 TAP_32
*634 TAP_33
*635 TAP_34
*636 TAP_35
*637 TAP_36
*638 TAP_37
*639 TAP_38
*640 TAP_39
*641 TAP_40
*642 TAP_41
*643 TAP_42
*644 TAP_43
*645 TAP_44
*646 TAP_45
*647 TAP_46
*648 TAP_47
*649 TAP_48
*650 TAP_49
*651 TAP_50
*652 TAP_51
*653 TAP_52
*654 TAP_53
*655 TAP_54
*656 TAP_55
*657 TAP_56
*658 TAP_57
*659 TAP_58
*660 TAP_59
*661 TAP_60
*662 TAP_61
*663 TAP_62
*664 TAP_63
*665 TAP_64
*666 TAP_65
*667 TAP_66
*668 TAP_67
*669 TAP_68
*670 TAP_69
*671 TAP_70
*672 TAP_71
*673 TAP_72
*674 TAP_73
*675 _00_
*676 _01_
*677 _02_
*678 _03_
*679 _04_
*680 _05_
*681 _06_
*682 _07_
*683 _08_
*684 _09_
*685 _10_
*686 _11_
*687 _12_
*688 _13_
*689 _14_
*690 _15_
*691 _16_
*692 _17_
*693 _18_
*694 _19_
*695 _20_
*696 _21_
*697 _22_
*698 _23_
*699 _24_
*700 _25_
*701 _26_
*702 _27_
*703 _28_
*704 _29_
*705 _30_
*706 _31_
*707 _32_
*708 _33_
*709 _34_
*710 _35_
*711 _36_
*712 _37_
*713 _38_
*714 _39_
*715 _40_
*716 _41_
*717 _42_
*718 _43_
*719 _44_
*720 _45_
*721 _46_
*722 _47_
*723 _48_
*724 _49_
*725 _50_
*726 _51_
*727 _52_
*728 _53_
*729 _54_
*730 _55_
*731 input1
*732 input10
*733 input11
*734 input12
*735 input13
*736 input14
*737 input15
*738 input16
*739 input17
*740 input18
*741 input19
*742 input2
*743 input20
*744 input21
*745 input22
*746 input23
*747 input24
*748 input25
*749 input26
*750 input27
*751 input28
*752 input29
*753 input3
*754 input30
*755 input31
*756 input32
*757 input33
*758 input34
*759 input35
*760 input36
*761 input37
*762 input38
*763 input39
*764 input4
*765 input40
*766 input41
*767 input42
*768 input43
*769 input44
*770 input45
*771 input46
*772 input47
*773 input48
*774 input49
*775 input5
*776 input50
*777 input51
*778 input52
*779 input53
*780 input54
*781 input55
*782 input56
*783 input57
*784 input6
*785 input7
*786 input8
*787 input9
*788 inst_clk_buf
*789 output100
*790 output101
*791 output102
*792 output103
*793 output104
*794 output105
*795 output106
*796 output107
*797 output108
*798 output109
*799 output110
*800 output111
*801 output112
*802 output113
*803 output114
*804 output58
*805 output59
*806 output60
*807 output61
*808 output62
*809 output63
*810 output64
*811 output65
*812 output66
*813 output67
*814 output68
*815 output69
*816 output70
*817 output71
*818 output72
*819 output73
*820 output74
*821 output75
*822 output76
*823 output77
*824 output78
*825 output79
*826 output80
*827 output81
*828 output82
*829 output83
*830 output84
*831 output85
*832 output86
*833 output87
*834 output88
*835 output89
*836 output90
*837 output91
*838 output92
*839 output93
*840 output94
*841 output95
*842 output96
*843 output97
*844 output98
*845 output99
*846 strobe_inbuf_0\._0_
*847 strobe_inbuf_1\._0_
*848 strobe_inbuf_10\._0_
*849 strobe_inbuf_11\._0_
*850 strobe_inbuf_12\._0_
*851 strobe_inbuf_13\._0_
*852 strobe_inbuf_14\._0_
*853 strobe_inbuf_15\._0_
*854 strobe_inbuf_16\._0_
*855 strobe_inbuf_17\._0_
*856 strobe_inbuf_18\._0_
*857 strobe_inbuf_19\._0_
*858 strobe_inbuf_2\._0_
*859 strobe_inbuf_3\._0_
*860 strobe_inbuf_4\._0_
*861 strobe_inbuf_5\._0_
*862 strobe_inbuf_6\._0_
*863 strobe_inbuf_7\._0_
*864 strobe_inbuf_8\._0_
*865 strobe_inbuf_9\._0_
*866 strobe_outbuf_0\._0_
*867 strobe_outbuf_1\._0_
*868 strobe_outbuf_10\._0_
*869 strobe_outbuf_11\._0_
*870 strobe_outbuf_12\._0_
*871 strobe_outbuf_13\._0_
*872 strobe_outbuf_14\._0_
*873 strobe_outbuf_15\._0_
*874 strobe_outbuf_16\._0_
*875 strobe_outbuf_17\._0_
*876 strobe_outbuf_18\._0_
*877 strobe_outbuf_19\._0_
*878 strobe_outbuf_2\._0_
*879 strobe_outbuf_3\._0_
*880 strobe_outbuf_4\._0_
*881 strobe_outbuf_5\._0_
*882 strobe_outbuf_6\._0_
*883 strobe_outbuf_7\._0_
*884 strobe_outbuf_8\._0_
*885 strobe_outbuf_9\._0_

*PORTS
FrameStrobe[0] I
FrameStrobe[10] I
FrameStrobe[11] I
FrameStrobe[12] I
FrameStrobe[13] I
FrameStrobe[14] I
FrameStrobe[15] I
FrameStrobe[16] I
FrameStrobe[17] I
FrameStrobe[18] I
FrameStrobe[19] I
FrameStrobe[1] I
FrameStrobe[2] I
FrameStrobe[3] I
FrameStrobe[4] I
FrameStrobe[5] I
FrameStrobe[6] I
FrameStrobe[7] I
FrameStrobe[8] I
FrameStrobe[9] I
FrameStrobe_O[0] O
FrameStrobe_O[10] O
FrameStrobe_O[11] O
FrameStrobe_O[12] O
FrameStrobe_O[13] O
FrameStrobe_O[14] O
FrameStrobe_O[15] O
FrameStrobe_O[16] O
FrameStrobe_O[17] O
FrameStrobe_O[18] O
FrameStrobe_O[19] O
FrameStrobe_O[1] O
FrameStrobe_O[2] O
FrameStrobe_O[3] O
FrameStrobe_O[4] O
FrameStrobe_O[5] O
FrameStrobe_O[6] O
FrameStrobe_O[7] O
FrameStrobe_O[8] O
FrameStrobe_O[9] O
N1BEG[0] O
N1BEG[1] O
N1BEG[2] O
N1BEG[3] O
N2BEG[0] O
N2BEG[1] O
N2BEG[2] O
N2BEG[3] O
N2BEG[4] O
N2BEG[5] O
N2BEG[6] O
N2BEG[7] O
N2BEGb[0] O
N2BEGb[1] O
N2BEGb[2] O
N2BEGb[3] O
N2BEGb[4] O
N2BEGb[5] O
N2BEGb[6] O
N2BEGb[7] O
N4BEG[0] O
N4BEG[10] O
N4BEG[11] O
N4BEG[12] O
N4BEG[13] O
N4BEG[14] O
N4BEG[15] O
N4BEG[1] O
N4BEG[2] O
N4BEG[3] O
N4BEG[4] O
N4BEG[5] O
N4BEG[6] O
N4BEG[7] O
N4BEG[8] O
N4BEG[9] O
S1END[0] I
S1END[1] I
S1END[2] I
S1END[3] I
S2END[0] I
S2END[1] I
S2END[2] I
S2END[3] I
S2END[4] I
S2END[5] I
S2END[6] I
S2END[7] I
S2MID[0] I
S2MID[1] I
S2MID[2] I
S2MID[3] I
S2MID[4] I
S2MID[5] I
S2MID[6] I
S2MID[7] I
S4END[0] I
S4END[10] I
S4END[11] I
S4END[12] I
S4END[13] I
S4END[14] I
S4END[15] I
S4END[1] I
S4END[2] I
S4END[3] I
S4END[4] I
S4END[5] I
S4END[6] I
S4END[7] I
S4END[8] I
S4END[9] I
UserCLK I
UserCLKo O

*D_NET *1 0.000646705
*CONN
*P FrameStrobe[0] I
*I *731:A I *D sky130_fd_sc_hd__buf_1
*CAP
1 FrameStrobe[0] 0.000323353
2 *731:A 0.000323353
*RES
1 FrameStrobe[0] *731:A 20.0143 
*END

*D_NET *2 0.000665366
*CONN
*P FrameStrobe[10] I
*I *742:A I *D sky130_fd_sc_hd__clkbuf_1
*CAP
1 FrameStrobe[10] 0.000332683
2 *742:A 0.000332683
3 *742:A *885:A 0
*RES
1 FrameStrobe[10] *742:A 20.0143 
*END

*D_NET *3 0.000679405
*CONN
*P FrameStrobe[11] I
*I *753:A I *D sky130_fd_sc_hd__buf_1
*CAP
1 FrameStrobe[11] 0.000336799
2 *753:A 0.000336799
3 *753:A *190:12 5.80706e-06
*RES
1 FrameStrobe[11] *753:A 20.0143 
*END

*D_NET *4 0.000738047
*CONN
*P FrameStrobe[12] I
*I *764:A I *D sky130_fd_sc_hd__clkbuf_1
*CAP
1 FrameStrobe[12] 0.000369024
2 *764:A 0.000369024
3 *764:A *850:A 0
4 *764:A *190:12 0
*RES
1 FrameStrobe[12] *764:A 20.425 
*END

*D_NET *5 0.000653377
*CONN
*P FrameStrobe[13] I
*I *775:A I *D sky130_fd_sc_hd__clkbuf_1
*CAP
1 FrameStrobe[13] 0.000326688
2 *775:A 0.000326688
3 *775:A *788:A 0
4 *775:A *850:A 0
5 *775:A *851:A 0
*RES
1 FrameStrobe[13] *775:A 20.0143 
*END

*D_NET *6 0.000833044
*CONN
*P FrameStrobe[14] I
*I *784:A I *D sky130_fd_sc_hd__clkbuf_1
*CAP
1 FrameStrobe[14] 0.000411397
2 *784:A 0.000411397
3 *784:A *785:A 0
4 *784:A *852:A 1.02504e-05
5 *784:A *170:18 0
*RES
1 FrameStrobe[14] *784:A 22.8357 
*END

*D_NET *7 0.000640299
*CONN
*P FrameStrobe[15] I
*I *785:A I *D sky130_fd_sc_hd__clkbuf_1
*CAP
1 FrameStrobe[15] 0.000320149
2 *785:A 0.000320149
3 *785:A *853:A 0
4 *784:A *785:A 0
*RES
1 FrameStrobe[15] *785:A 20.0143 
*END

*D_NET *8 0.000656718
*CONN
*P FrameStrobe[16] I
*I *786:A I *D sky130_fd_sc_hd__clkbuf_1
*CAP
1 FrameStrobe[16] 0.000326292
2 *786:A 0.000326292
3 *786:A *853:A 0
4 *786:A *854:A 4.1331e-06
*RES
1 FrameStrobe[16] *786:A 20.0143 
*END

*D_NET *9 0.000633855
*CONN
*P FrameStrobe[17] I
*I *787:A I *D sky130_fd_sc_hd__clkbuf_1
*CAP
1 FrameStrobe[17] 0.000316927
2 *787:A 0.000316927
3 *787:A *854:A 0
4 *787:A *855:A 0
*RES
1 FrameStrobe[17] *787:A 20.0143 
*END

*D_NET *10 0.000773207
*CONN
*P FrameStrobe[18] I
*I *732:A I *D sky130_fd_sc_hd__clkbuf_1
*CAP
1 FrameStrobe[18] 0.000386603
2 *732:A 0.000386603
3 *732:A *733:A 0
4 *732:A *855:A 0
5 *732:A *857:A 0
*RES
1 FrameStrobe[18] *732:A 22.425 
*END

*D_NET *11 0.00106597
*CONN
*P FrameStrobe[19] I
*I *733:A I *D sky130_fd_sc_hd__clkbuf_1
*CAP
1 FrameStrobe[19] 0.00049688
2 *733:A 0.00049688
3 *733:A *857:A 4.94715e-05
4 *733:A *876:A 2.27416e-05
5 *732:A *733:A 0
*RES
1 FrameStrobe[19] *733:A 23.425 
*END

*D_NET *12 0.000648946
*CONN
*P FrameStrobe[1] I
*I *734:A I *D sky130_fd_sc_hd__buf_1
*CAP
1 FrameStrobe[1] 0.000313951
2 *734:A 0.000313951
3 *734:A *171:14 2.10446e-05
*RES
1 FrameStrobe[1] *734:A 20.0143 
*END

*D_NET *13 0.000657975
*CONN
*P FrameStrobe[2] I
*I *735:A I *D sky130_fd_sc_hd__clkbuf_1
*CAP
1 FrameStrobe[2] 0.000308192
2 *735:A 0.000308192
3 *735:A *172:12 4.15914e-05
*RES
1 FrameStrobe[2] *735:A 20.0143 
*END

*D_NET *14 0.000670833
*CONN
*P FrameStrobe[3] I
*I *736:A I *D sky130_fd_sc_hd__clkbuf_1
*CAP
1 FrameStrobe[3] 0.000335417
2 *736:A 0.000335417
3 *736:A *172:12 0
*RES
1 FrameStrobe[3] *736:A 20.0143 
*END

*D_NET *15 0.000997185
*CONN
*P FrameStrobe[4] I
*I *737:A I *D sky130_fd_sc_hd__clkbuf_1
*CAP
1 FrameStrobe[4] 0.000498592
2 *737:A 0.000498592
3 *737:A *738:A 0
*RES
1 FrameStrobe[4] *737:A 22.6036 
*END

*D_NET *16 0.000729315
*CONN
*P FrameStrobe[5] I
*I *738:A I *D sky130_fd_sc_hd__clkbuf_1
*CAP
1 FrameStrobe[5] 0.000338444
2 *738:A 0.000338444
3 *738:A *220:14 5.24274e-05
4 *737:A *738:A 0
*RES
1 FrameStrobe[5] *738:A 20.0143 
*END

*D_NET *17 0.000689927
*CONN
*P FrameStrobe[6] I
*I *739:A I *D sky130_fd_sc_hd__clkbuf_1
*CAP
1 FrameStrobe[6] 0.000344964
2 *739:A 0.000344964
*RES
1 FrameStrobe[6] *739:A 20.0143 
*END

*D_NET *18 0.000664364
*CONN
*P FrameStrobe[7] I
*I *740:A I *D sky130_fd_sc_hd__clkbuf_1
*CAP
1 FrameStrobe[7] 0.00030931
2 *740:A 0.00030931
3 *740:A *858:A 4.57445e-05
*RES
1 FrameStrobe[7] *740:A 20.0143 
*END

*D_NET *19 0.000697991
*CONN
*P FrameStrobe[8] I
*I *741:A I *D sky130_fd_sc_hd__clkbuf_1
*CAP
1 FrameStrobe[8] 0.00034387
2 *741:A 0.00034387
3 *741:A *878:A 1.02504e-05
*RES
1 FrameStrobe[8] *741:A 20.0143 
*END

*D_NET *20 0.000892971
*CONN
*P FrameStrobe[9] I
*I *743:A I *D sky130_fd_sc_hd__clkbuf_1
*CAP
1 FrameStrobe[9] 0.000446486
2 *743:A 0.000446486
*RES
1 FrameStrobe[9] *743:A 21.7821 
*END

*D_NET *21 0.00147648
*CONN
*P FrameStrobe_O[0] O
*I *804:X O *D sky130_fd_sc_hd__clkbuf_4
*CAP
1 FrameStrobe_O[0] 0.000382076
2 *804:X 0.000382076
3 FrameStrobe_O[0] FrameStrobe_O[1] 0.000129353
4 FrameStrobe_O[0] UserCLKo 0.000136265
5 FrameStrobe_O[0] *771:A 0.000226507
6 FrameStrobe_O[0] *265:16 0.0002202
*RES
1 *804:X FrameStrobe_O[0] 23.5321 
*END

*D_NET *22 0.00157154
*CONN
*P FrameStrobe_O[10] O
*I *805:X O *D sky130_fd_sc_hd__clkbuf_4
*CAP
1 FrameStrobe_O[10] 0.000434304
2 *805:X 0.000434304
3 FrameStrobe_O[10] FrameStrobe_O[11] 0.000296043
4 FrameStrobe_O[10] FrameStrobe_O[19] 9.60875e-05
5 FrameStrobe_O[10] FrameStrobe_O[9] 0.000265265
6 FrameStrobe_O[10] *237:26 4.5539e-05
*RES
1 *805:X FrameStrobe_O[10] 25.8357 
*END

*D_NET *23 0.00223452
*CONN
*P FrameStrobe_O[11] O
*I *806:X O *D sky130_fd_sc_hd__clkbuf_4
*CAP
1 FrameStrobe_O[11] 0.000486662
2 *806:X 0.000486662
3 FrameStrobe_O[11] FrameStrobe_O[12] 0.000323685
4 FrameStrobe_O[11] FrameStrobe_O[5] 0.000501561
5 FrameStrobe_O[11] *810:A 0.000139907
6 FrameStrobe_O[10] FrameStrobe_O[11] 0.000296043
*RES
1 *806:X FrameStrobe_O[11] 27.9786 
*END

*D_NET *24 0.00234017
*CONN
*P FrameStrobe_O[12] O
*I *807:X O *D sky130_fd_sc_hd__clkbuf_4
*CAP
1 FrameStrobe_O[12] 0.000535711
2 *807:X 0.000535711
3 FrameStrobe_O[12] FrameStrobe_O[13] 0.000522574
4 FrameStrobe_O[12] FrameStrobe_O[5] 0.000276728
5 FrameStrobe_O[12] *806:A 0.00014576
6 FrameStrobe_O[12] *812:A 0
7 FrameStrobe_O[11] FrameStrobe_O[12] 0.000323685
*RES
1 *807:X FrameStrobe_O[12] 29.3357 
*END

*D_NET *25 0.00324363
*CONN
*P FrameStrobe_O[13] O
*I *808:X O *D sky130_fd_sc_hd__clkbuf_4
*CAP
1 FrameStrobe_O[13] 0.000760048
2 *808:X 0.000760048
3 FrameStrobe_O[13] FrameStrobe_O[14] 0
4 FrameStrobe_O[13] FrameStrobe_O[15] 0.000226507
5 FrameStrobe_O[13] FrameStrobe_O[17] 0.000571439
6 FrameStrobe_O[13] *805:A 0.00019384
7 FrameStrobe_O[13] *806:A 5.59013e-05
8 FrameStrobe_O[13] *809:A 2.89016e-05
9 FrameStrobe_O[13] *819:A 0.000124372
10 FrameStrobe_O[12] FrameStrobe_O[13] 0.000522574
*RES
1 *808:X FrameStrobe_O[13] 34.55 
*END

*D_NET *26 0.00357399
*CONN
*P FrameStrobe_O[14] O
*I *809:X O *D sky130_fd_sc_hd__clkbuf_4
*CAP
1 FrameStrobe_O[14] 0.000724803
2 *809:X 0.000724803
3 FrameStrobe_O[14] FrameStrobe_O[15] 0.00106448
4 FrameStrobe_O[14] FrameStrobe_O[16] 0.000139907
5 FrameStrobe_O[14] *811:A 9.24859e-05
6 FrameStrobe_O[14] *819:A 0.000592383
7 FrameStrobe_O[14] *875:A 0.000235125
8 FrameStrobe_O[13] FrameStrobe_O[14] 0
*RES
1 *809:X FrameStrobe_O[14] 35.3893 
*END

*D_NET *27 0.00310534
*CONN
*P FrameStrobe_O[15] O
*I *810:X O *D sky130_fd_sc_hd__clkbuf_4
*CAP
1 FrameStrobe_O[15] 0.0006478
2 *810:X 0.0006478
3 FrameStrobe_O[15] FrameStrobe_O[16] 0.000413198
4 FrameStrobe_O[15] FrameStrobe_O[17] 0.000105559
5 FrameStrobe_O[13] FrameStrobe_O[15] 0.000226507
6 FrameStrobe_O[14] FrameStrobe_O[15] 0.00106448
*RES
1 *810:X FrameStrobe_O[15] 32.2464 
*END

*D_NET *28 0.00252573
*CONN
*P FrameStrobe_O[16] O
*I *811:X O *D sky130_fd_sc_hd__clkbuf_4
*CAP
1 FrameStrobe_O[16] 0.000972099
2 *811:X 0.000972099
3 FrameStrobe_O[16] FrameStrobe_O[17] 0
4 FrameStrobe_O[16] FrameStrobe_O[18] 0
5 FrameStrobe_O[16] *875:A 2.8428e-05
6 FrameStrobe_O[14] FrameStrobe_O[16] 0.000139907
7 FrameStrobe_O[15] FrameStrobe_O[16] 0.000413198
*RES
1 *811:X FrameStrobe_O[16] 35.3893 
*END

*D_NET *29 0.00314052
*CONN
*P FrameStrobe_O[17] O
*I *812:X O *D sky130_fd_sc_hd__clkbuf_4
*CAP
1 FrameStrobe_O[17] 0.000957223
2 *812:X 0.000957223
3 FrameStrobe_O[17] FrameStrobe_O[18] 0.00041323
4 FrameStrobe_O[17] FrameStrobe_O[19] 0
5 FrameStrobe_O[17] *810:A 0.000135845
6 FrameStrobe_O[13] FrameStrobe_O[17] 0.000571439
7 FrameStrobe_O[15] FrameStrobe_O[17] 0.000105559
8 FrameStrobe_O[16] FrameStrobe_O[17] 0
*RES
1 *812:X FrameStrobe_O[17] 37.2643 
*END

*D_NET *30 0.00282014
*CONN
*P FrameStrobe_O[18] O
*I *813:X O *D sky130_fd_sc_hd__clkbuf_4
*CAP
1 FrameStrobe_O[18] 0.00104935
2 *813:X 0.00104935
3 FrameStrobe_O[18] FrameStrobe_O[19] 0.000308211
4 FrameStrobe_O[16] FrameStrobe_O[18] 0
5 FrameStrobe_O[17] FrameStrobe_O[18] 0.00041323
*RES
1 *813:X FrameStrobe_O[18] 38.3 
*END

*D_NET *31 0.00348157
*CONN
*P FrameStrobe_O[19] O
*I *814:X O *D sky130_fd_sc_hd__clkbuf_4
*CAP
1 FrameStrobe_O[19] 0.0011445
2 *814:X 0.0011445
3 FrameStrobe_O[19] FrameStrobe_O[7] 0.0001399
4 FrameStrobe_O[19] FrameStrobe_O[9] 0.000144773
5 FrameStrobe_O[19] *726:A 0.000503594
6 FrameStrobe_O[10] FrameStrobe_O[19] 9.60875e-05
7 FrameStrobe_O[17] FrameStrobe_O[19] 0
8 FrameStrobe_O[18] FrameStrobe_O[19] 0.000308211
*RES
1 *814:X FrameStrobe_O[19] 38.8714 
*END

*D_NET *32 0.00186706
*CONN
*P FrameStrobe_O[1] O
*I *815:X O *D sky130_fd_sc_hd__clkbuf_4
*CAP
1 FrameStrobe_O[1] 0.000427493
2 *815:X 0.000427493
3 FrameStrobe_O[1] FrameStrobe_O[2] 0
4 FrameStrobe_O[1] *585:A 1.21258e-05
5 FrameStrobe_O[1] *586:A 0.000268409
6 FrameStrobe_O[1] *683:A 5.33334e-05
7 FrameStrobe_O[1] *771:A 2.89114e-05
8 FrameStrobe_O[1] *804:A 8.4915e-05
9 FrameStrobe_O[1] *265:16 0.000435028
10 FrameStrobe_O[0] FrameStrobe_O[1] 0.000129353
*RES
1 *815:X FrameStrobe_O[1] 26.0143 
*END

*D_NET *33 0.00219011
*CONN
*P FrameStrobe_O[2] O
*I *816:X O *D sky130_fd_sc_hd__clkbuf_4
*CAP
1 FrameStrobe_O[2] 0.00063816
2 *816:X 0.00063816
3 FrameStrobe_O[2] FrameStrobe_O[3] 0.000913793
4 FrameStrobe_O[1] FrameStrobe_O[2] 0
*RES
1 *816:X FrameStrobe_O[2] 26.9429 
*END

*D_NET *34 0.00233321
*CONN
*P FrameStrobe_O[3] O
*I *817:X O *D sky130_fd_sc_hd__clkbuf_4
*CAP
1 FrameStrobe_O[3] 0.000439291
2 *817:X 0.000439291
3 FrameStrobe_O[3] FrameStrobe_O[4] 0.00013793
4 FrameStrobe_O[3] FrameStrobe_O[5] 0
5 FrameStrobe_O[3] *771:A 2.8266e-06
6 FrameStrobe_O[3] *816:A 0.000400078
7 FrameStrobe_O[2] FrameStrobe_O[3] 0.000913793
*RES
1 *817:X FrameStrobe_O[3] 27.8357 
*END

*D_NET *35 0.00237844
*CONN
*P FrameStrobe_O[4] O
*I *818:X O *D sky130_fd_sc_hd__clkbuf_4
*CAP
1 FrameStrobe_O[4] 0.000854965
2 *818:X 0.000854965
3 FrameStrobe_O[4] FrameStrobe_O[5] 3.34313e-05
4 FrameStrobe_O[4] FrameStrobe_O[6] 0.000316159
5 FrameStrobe_O[4] *726:A 5.80706e-06
6 FrameStrobe_O[4] *816:A 0.000175179
7 FrameStrobe_O[4] *873:A 0
8 FrameStrobe_O[3] FrameStrobe_O[4] 0.00013793
*RES
1 *818:X FrameStrobe_O[4] 29.9786 
*END

*D_NET *36 0.00229865
*CONN
*P FrameStrobe_O[5] O
*I *819:X O *D sky130_fd_sc_hd__clkbuf_4
*CAP
1 FrameStrobe_O[5] 0.000696186
2 *819:X 0.000696186
3 FrameStrobe_O[5] FrameStrobe_O[6] 6.56521e-05
4 FrameStrobe_O[5] *819:A 2.89016e-05
5 FrameStrobe_O[11] FrameStrobe_O[5] 0.000501561
6 FrameStrobe_O[12] FrameStrobe_O[5] 0.000276728
7 FrameStrobe_O[3] FrameStrobe_O[5] 0
8 FrameStrobe_O[4] FrameStrobe_O[5] 3.34313e-05
*RES
1 *819:X FrameStrobe_O[5] 38.8179 
*END

*D_NET *37 0.00290717
*CONN
*P FrameStrobe_O[6] O
*I *820:X O *D sky130_fd_sc_hd__clkbuf_4
*CAP
1 FrameStrobe_O[6] 0.000977444
2 *820:X 0.000977444
3 FrameStrobe_O[6] FrameStrobe_O[7] 0.000288221
4 FrameStrobe_O[6] FrameStrobe_O[8] 0
5 FrameStrobe_O[6] *726:A 0
6 FrameStrobe_O[6] *808:A 0
7 FrameStrobe_O[6] *809:A 2.05938e-05
8 FrameStrobe_O[6] *811:A 0.000112418
9 FrameStrobe_O[6] *814:A 0.00010137
10 FrameStrobe_O[6] *822:A 4.78664e-05
11 FrameStrobe_O[6] *873:A 0
12 FrameStrobe_O[4] FrameStrobe_O[6] 0.000316159
13 FrameStrobe_O[5] FrameStrobe_O[6] 6.56521e-05
*RES
1 *820:X FrameStrobe_O[6] 35.3357 
*END