*SPEF "ieee 1481-1999"
*DESIGN "LUT4AB"
*DATE "11:11:11 Fri 11 11, 1111"
*VENDOR "OpenRCX"
*PROGRAM "Parallel Extraction"
*VERSION "1.0"
*DESIGN_FLOW "NAME_SCOPE LOCAL" "PIN_CAP NONE"
*DIVIDER /
*DELIMITER :
*BUS_DELIMITER []
*T_UNIT 1 NS
*C_UNIT 1 PF
*R_UNIT 1 OHM
*L_UNIT 1 HENRY

*NAME_MAP
*1 Ci
*2 Co
*3 E1BEG[0]
*4 E1BEG[1]
*5 E1BEG[2]
*6 E1BEG[3]
*7 E1END[0]
*8 E1END[1]
*9 E1END[2]
*10 E1END[3]
*11 E2BEG[0]
*12 E2BEG[1]
*13 E2BEG[2]
*14 E2BEG[3]
*15 E2BEG[4]
*16 E2BEG[5]
*17 E2BEG[6]
*18 E2BEG[7]
*19 E2BEGb[0]
*20 E2BEGb[1]
*21 E2BEGb[2]
*22 E2BEGb[3]
*23 E2BEGb[4]
*24 E2BEGb[5]
*25 E2BEGb[6]
*26 E2BEGb[7]
*27 E2END[0]
*28 E2END[1]
*29 E2END[2]
*30 E2END[3]
*31 E2END[4]
*32 E2END[5]
*33 E2END[6]
*34 E2END[7]
*35 E2MID[0]
*36 E2MID[1]
*37 E2MID[2]
*38 E2MID[3]
*39 E2MID[4]
*40 E2MID[5]
*41 E2MID[6]
*42 E2MID[7]
*43 E6BEG[0]
*44 E6BEG[10]
*45 E6BEG[11]
*46 E6BEG[1]
*47 E6BEG[2]
*48 E6BEG[3]
*49 E6BEG[4]
*50 E6BEG[5]
*51 E6BEG[6]
*52 E6BEG[7]
*53 E6BEG[8]
*54 E6BEG[9]
*55 E6END[0]
*56 E6END[10]
*57 E6END[11]
*58 E6END[1]
*59 E6END[2]
*60 E6END[3]
*61 E6END[4]
*62 E6END[5]
*63 E6END[6]
*64 E6END[7]
*65 E6END[8]
*66 E6END[9]
*67 EE4BEG[0]
*68 EE4BEG[10]
*69 EE4BEG[11]
*70 EE4BEG[12]
*71 EE4BEG[13]
*72 EE4BEG[14]
*73 EE4BEG[15]
*74 EE4BEG[1]
*75 EE4BEG[2]
*76 EE4BEG[3]
*77 EE4BEG[4]
*78 EE4BEG[5]
*79 EE4BEG[6]
*80 EE4BEG[7]
*81 EE4BEG[8]
*82 EE4BEG[9]
*83 EE4END[0]
*84 EE4END[10]
*85 EE4END[11]
*86 EE4END[12]
*87 EE4END[13]
*88 EE4END[14]
*89 EE4END[15]
*90 EE4END[1]
*91 EE4END[2]
*92 EE4END[3]
*93 EE4END[4]
*94 EE4END[5]
*95 EE4END[6]
*96 EE4END[7]
*97 EE4END[8]
*98 EE4END[9]
*99 FrameData[0]
*100 FrameData[10]
*101 FrameData[11]
*102 FrameData[12]
*103 FrameData[13]
*104 FrameData[14]
*105 FrameData[15]
*106 FrameData[16]
*107 FrameData[17]
*108 FrameData[18]
*109 FrameData[19]
*110 FrameData[1]
*111 FrameData[20]
*112 FrameData[21]
*113 FrameData[22]
*114 FrameData[23]
*115 FrameData[24]
*116 FrameData[25]
*117 FrameData[26]
*118 FrameData[27]
*119 FrameData[28]
*120 FrameData[29]
*121 FrameData[2]
*122 FrameData[30]
*123 FrameData[31]
*124 FrameData[3]
*125 FrameData[4]
*126 FrameData[5]
*127 FrameData[6]
*128 FrameData[7]
*129 FrameData[8]
*130 FrameData[9]
*131 FrameData_O[0]
*132 FrameData_O[10]
*133 FrameData_O[11]
*134 FrameData_O[12]
*135 FrameData_O[13]
*136 FrameData_O[14]
*137 FrameData_O[15]
*138 FrameData_O[16]
*139 FrameData_O[17]
*140 FrameData_O[18]
*141 FrameData_O[19]
*142 FrameData_O[1]
*143 FrameData_O[20]
*144 FrameData_O[21]
*145 FrameData_O[22]
*146 FrameData_O[23]
*147 FrameData_O[24]
*148 FrameData_O[25]
*149 FrameData_O[26]
*150 FrameData_O[27]
*151 FrameData_O[28]
*152 FrameData_O[29]
*153 FrameData_O[2]
*154 FrameData_O[30]
*155 FrameData_O[31]
*156 FrameData_O[3]
*157 FrameData_O[4]
*158 FrameData_O[5]
*159 FrameData_O[6]
*160 FrameData_O[7]
*161 FrameData_O[8]
*162 FrameData_O[9]
*163 FrameStrobe[0]
*164 FrameStrobe[10]
*165 FrameStrobe[11]
*166 FrameStrobe[12]
*167 FrameStrobe[13]
*168 FrameStrobe[14]
*169 FrameStrobe[15]
*170 FrameStrobe[16]
*171 FrameStrobe[17]
*172 FrameStrobe[18]
*173 FrameStrobe[19]
*174 FrameStrobe[1]
*175 FrameStrobe[2]
*176 FrameStrobe[3]
*177 FrameStrobe[4]
*178 FrameStrobe[5]
*179 FrameStrobe[6]
*180 FrameStrobe[7]
*181 FrameStrobe[8]
*182 FrameStrobe[9]
*183 FrameStrobe_O[0]
*184 FrameStrobe_O[10]
*185 FrameStrobe_O[11]
*186 FrameStrobe_O[12]
*187 FrameStrobe_O[13]
*188 FrameStrobe_O[14]
*189 FrameStrobe_O[15]
*190 FrameStrobe_O[16]
*191 FrameStrobe_O[17]
*192 FrameStrobe_O[18]
*193 FrameStrobe_O[19]
*194 FrameStrobe_O[1]
*195 FrameStrobe_O[2]
*196 FrameStrobe_O[3]
*197 FrameStrobe_O[4]
*198 FrameStrobe_O[5]
*199 FrameStrobe_O[6]
*200 FrameStrobe_O[7]
*201 FrameStrobe_O[8]
*202 FrameStrobe_O[9]
*203 N1BEG[0]
*204 N1BEG[1]
*205 N1BEG[2]
*206 N1BEG[3]
*207 N1END[0]
*208 N1END[1]
*209 N1END[2]
*210 N1END[3]
*211 N2BEG[0]
*212 N2BEG[1]
*213 N2BEG[2]
*214 N2BEG[3]
*215 N2BEG[4]
*216 N2BEG[5]
*217 N2BEG[6]
*218 N2BEG[7]
*219 N2BEGb[0]
*220 N2BEGb[1]
*221 N2BEGb[2]
*222 N2BEGb[3]
*223 N2BEGb[4]
*224 N2BEGb[5]
*225 N2BEGb[6]
*226 N2BEGb[7]
*227 N2END[0]
*228 N2END[1]
*229 N2END[2]
*230 N2END[3]
*231 N2END[4]
*232 N2END[5]
*233 N2END[6]
*234 N2END[7]
*235 N2MID[0]
*236 N2MID[1]
*237 N2MID[2]
*238 N2MID[3]
*239 N2MID[4]
*240 N2MID[5]
*241 N2MID[6]
*242 N2MID[7]
*243 N4BEG[0]
*244 N4BEG[10]
*245 N4BEG[11]
*246 N4BEG[12]
*247 N4BEG[13]
*248 N4BEG[14]
*249 N4BEG[15]
*250 N4BEG[1]
*251 N4BEG[2]
*252 N4BEG[3]
*253 N4BEG[4]
*254 N4BEG[5]
*255 N4BEG[6]
*256 N4BEG[7]
*257 N4BEG[8]
*258 N4BEG[9]
*259 N4END[0]
*260 N4END[10]
*261 N4END[11]
*262 N4END[12]
*263 N4END[13]
*264 N4END[14]
*265 N4END[15]
*266 N4END[1]
*267 N4END[2]
*268 N4END[3]
*269 N4END[4]
*270 N4END[5]
*271 N4END[6]
*272 N4END[7]
*273 N4END[8]
*274 N4END[9]
*275 NN4BEG[0]
*276 NN4BEG[10]
*277 NN4BEG[11]
*278 NN4BEG[12]
*279 NN4BEG[13]
*280 NN4BEG[14]
*281 NN4BEG[15]
*282 NN4BEG[1]
*283 NN4BEG[2]
*284 NN4BEG[3]
*285 NN4BEG[4]
*286 NN4BEG[5]
*287 NN4BEG[6]
*288 NN4BEG[7]
*289 NN4BEG[8]
*290 NN4BEG[9]
*291 NN4END[0]
*292 NN4END[10]
*293 NN4END[11]
*294 NN4END[12]
*295 NN4END[13]
*296 NN4END[14]
*297 NN4END[15]
*298 NN4END[1]
*299 NN4END[2]
*300 NN4END[3]
*301 NN4END[4]
*302 NN4END[5]
*303 NN4END[6]
*304 NN4END[7]
*305 NN4END[8]
*306 NN4END[9]
*307 S1BEG[0]
*308 S1BEG[1]
*309 S1BEG[2]
*310 S1BEG[3]
*311 S1END[0]
*312 S1END[1]
*313 S1END[2]
*314 S1END[3]
*315 S2BEG[0]
*316 S2BEG[1]
*317 S2BEG[2]
*318 S2BEG[3]
*319 S2BEG[4]
*320 S2BEG[5]
*321 S2BEG[6]
*322 S2BEG[7]
*323 S2BEGb[0]
*324 S2BEGb[1]
*325 S2BEGb[2]
*326 S2BEGb[3]
*327 S2BEGb[4]
*328 S2BEGb[5]
*329 S2BEGb[6]
*330 S2BEGb[7]
*331 S2END[0]
*332 S2END[1]
*333 S2END[2]
*334 S2END[3]
*335 S2END[4]
*336 S2END[5]
*337 S2END[6]
*338 S2END[7]
*339 S2MID[0]
*340 S2MID[1]
*341 S2MID[2]
*342 S2MID[3]
*343 S2MID[4]
*344 S2MID[5]
*345 S2MID[6]
*346 S2MID[7]
*347 S4BEG[0]
*348 S4BEG[10]
*349 S4BEG[11]
*350 S4BEG[12]
*351 S4BEG[13]
*352 S4BEG[14]
*353 S4BEG[15]
*354 S4BEG[1]
*355 S4BEG[2]
*356 S4BEG[3]
*357 S4BEG[4]
*358 S4BEG[5]
*359 S4BEG[6]
*360 S4BEG[7]
*361 S4BEG[8]
*362 S4BEG[9]
*363 S4END[0]
*364 S4END[10]
*365 S4END[11]
*366 S4END[12]
*367 S4END[13]
*368 S4END[14]
*369 S4END[15]
*370 S4END[1]
*371 S4END[2]
*372 S4END[3]
*373 S4END[4]
*374 S4END[5]
*375 S4END[6]
*376 S4END[7]
*377 S4END[8]
*378 S4END[9]
*379 SS4BEG[0]
*380 SS4BEG[10]
*381 SS4BEG[11]
*382 SS4BEG[12]
*383 SS4BEG[13]
*384 SS4BEG[14]
*385 SS4BEG[15]
*386 SS4BEG[1]
*387 SS4BEG[2]
*388 SS4BEG[3]
*389 SS4BEG[4]
*390 SS4BEG[5]
*391 SS4BEG[6]
*392 SS4BEG[7]
*393 SS4BEG[8]
*394 SS4BEG[9]
*395 SS4END[0]
*396 SS4END[10]
*397 SS4END[11]
*398 SS4END[12]
*399 SS4END[13]
*400 SS4END[14]
*401 SS4END[15]
*402 SS4END[1]
*403 SS4END[2]
*404 SS4END[3]
*405 SS4END[4]
*406 SS4END[5]
*407 SS4END[6]
*408 SS4END[7]
*409 SS4END[8]
*410 SS4END[9]
*411 UserCLK
*412 UserCLKo
*415 W1BEG[0]
*416 W1BEG[1]
*417 W1BEG[2]
*418 W1BEG[3]
*419 W1END[0]
*420 W1END[1]
*421 W1END[2]
*422 W1END[3]
*423 W2BEG[0]
*424 W2BEG[1]
*425 W2BEG[2]
*426 W2BEG[3]
*427 W2BEG[4]
*428 W2BEG[5]
*429 W2BEG[6]
*430 W2BEG[7]
*431 W2BEGb[0]
*432 W2BEGb[1]
*433 W2BEGb[2]
*434 W2BEGb[3]
*435 W2BEGb[4]
*436 W2BEGb[5]
*437 W2BEGb[6]
*438 W2BEGb[7]
*439 W2END[0]
*440 W2END[1]
*441 W2END[2]
*442 W2END[3]
*443 W2END[4]
*444 W2END[5]
*445 W2END[6]
*446 W2END[7]
*447 W2MID[0]
*448 W2MID[1]
*449 W2MID[2]
*450 W2MID[3]
*451 W2MID[4]
*452 W2MID[5]
*453 W2MID[6]
*454 W2MID[7]
*455 W6BEG[0]
*456 W6BEG[10]
*457 W6BEG[11]
*458 W6BEG[1]
*459 W6BEG[2]
*460 W6BEG[3]
*461 W6BEG[4]
*462 W6BEG[5]
*463 W6BEG[6]
*464 W6BEG[7]
*465 W6BEG[8]
*466 W6BEG[9]
*467 W6END[0]
*468 W6END[10]
*469 W6END[11]
*470 W6END[1]
*471 W6END[2]
*472 W6END[3]
*473 W6END[4]
*474 W6END[5]
*475 W6END[6]
*476 W6END[7]
*477 W6END[8]
*478 W6END[9]
*479 WW4BEG[0]
*480 WW4BEG[10]
*481 WW4BEG[11]
*482 WW4BEG[12]
*483 WW4BEG[13]
*484 WW4BEG[14]
*485 WW4BEG[15]
*486 WW4BEG[1]
*487 WW4BEG[2]
*488 WW4BEG[3]
*489 WW4BEG[4]
*490 WW4BEG[5]
*491 WW4BEG[6]
*492 WW4BEG[7]
*493 WW4BEG[8]
*494 WW4BEG[9]
*495 WW4END[0]
*496 WW4END[10]
*497 WW4END[11]
*498 WW4END[12]
*499 WW4END[13]
*500 WW4END[14]
*501 WW4END[15]
*502 WW4END[1]
*503 WW4END[2]
*504 WW4END[3]
*505 WW4END[4]
*506 WW4END[5]
*507 WW4END[6]
*508 WW4END[7]
*509 WW4END[8]
*510 WW4END[9]
*511 E6BEG_outbuf_0\.A
*512 E6BEG_outbuf_0\.X
*513 E6BEG_outbuf_1\.A
*514 E6BEG_outbuf_1\.X
*515 E6BEG_outbuf_2\.A
*516 E6BEG_outbuf_2\.X
*517 E6BEG_outbuf_3\.A
*518 E6BEG_outbuf_3\.X
*519 E6BEG_outbuf_4\.A
*520 E6BEG_outbuf_4\.X
*521 E6BEG_outbuf_5\.A
*522 E6BEG_outbuf_5\.X
*523 E6BEG_outbuf_6\.A
*524 E6BEG_outbuf_6\.X
*525 E6BEG_outbuf_7\.A
*526 E6BEG_outbuf_7\.X
*527 E6BEG_outbuf_8\.A
*528 E6BEG_outbuf_8\.X
*529 E6BEG_outbuf_9\.A
*530 E6BEG_outbuf_9\.X
*531 EE4BEG_outbuf_0\.A
*532 EE4BEG_outbuf_0\.X
*533 EE4BEG_outbuf_1\.A
*534 EE4BEG_outbuf_1\.X
*535 EE4BEG_outbuf_10\.A
*536 EE4BEG_outbuf_10\.X
*537 EE4BEG_outbuf_11\.A
*538 EE4BEG_outbuf_11\.X
*539 EE4BEG_outbuf_2\.A
*540 EE4BEG_outbuf_2\.X
*541 EE4BEG_outbuf_3\.A
*542 EE4BEG_outbuf_3\.X
*543 EE4BEG_outbuf_4\.A
*544 EE4BEG_outbuf_4\.X
*545 EE4BEG_outbuf_5\.A
*546 EE4BEG_outbuf_5\.X
*547 EE4BEG_outbuf_6\.A
*548 EE4BEG_outbuf_6\.X
*549 EE4BEG_outbuf_7\.A
*550 EE4BEG_outbuf_7\.X
*551 EE4BEG_outbuf_8\.A
*552 EE4BEG_outbuf_8\.X
*553 EE4BEG_outbuf_9\.A
*554 EE4BEG_outbuf_9\.X
*555 Inst_LA_LUT4c_frame_config_dffesr\.Ci
*556 Inst_LA_LUT4c_frame_config_dffesr\.Co
*557 Inst_LA_LUT4c_frame_config_dffesr\.ConfigBits\[0\]
*558 Inst_LA_LUT4c_frame_config_dffesr\.ConfigBits\[10\]
*559 Inst_LA_LUT4c_frame_config_dffesr\.ConfigBits\[11\]
*560 Inst_LA_LUT4c_frame_config_dffesr\.ConfigBits\[12\]
*561 Inst_LA_LUT4c_frame_config_dffesr\.ConfigBits\[13\]
*562 Inst_LA_LUT4c_frame_config_dffesr\.ConfigBits\[14\]
*563 Inst_LA_LUT4c_frame_config_dffesr\.ConfigBits\[15\]
*564 Inst_LA_LUT4c_frame_config_dffesr\.ConfigBits\[16\]
*565 Inst_LA_LUT4c_frame_config_dffesr\.ConfigBits\[17\]
*566 Inst_LA_LUT4c_frame_config_dffesr\.ConfigBits\[18\]
*567 Inst_LA_LUT4c_frame_config_dffesr\.ConfigBits\[1\]
*568 Inst_LA_LUT4c_frame_config_dffesr\.ConfigBits\[2\]
*569 Inst_LA_LUT4c_frame_config_dffesr\.ConfigBits\[3\]
*570 Inst_LA_LUT4c_frame_config_dffesr\.ConfigBits\[4\]
*571 Inst_LA_LUT4c_frame_config_dffesr\.ConfigBits\[5\]
*572 Inst_LA_LUT4c_frame_config_dffesr\.ConfigBits\[6\]
*573 Inst_LA_LUT4c_frame_config_dffesr\.ConfigBits\[7\]
*574 Inst_LA_LUT4c_frame_config_dffesr\.ConfigBits\[8\]
*575 Inst_LA_LUT4c_frame_config_dffesr\.ConfigBits\[9\]
*576 Inst_LA_LUT4c_frame_config_dffesr\.EN
*577 Inst_LA_LUT4c_frame_config_dffesr\.I0mux
*578 Inst_LA_LUT4c_frame_config_dffesr\.I\[0\]
*579 Inst_LA_LUT4c_frame_config_dffesr\.I\[1\]
*580 Inst_LA_LUT4c_frame_config_dffesr\.I\[2\]
*581 Inst_LA_LUT4c_frame_config_dffesr\.I\[3\]
*582 Inst_LA_LUT4c_frame_config_dffesr\.LUT_flop
*583 Inst_LA_LUT4c_frame_config_dffesr\.LUT_out
*584 Inst_LA_LUT4c_frame_config_dffesr\.O
*585 Inst_LA_LUT4c_frame_config_dffesr\.SR
*586 Inst_LA_LUT4c_frame_config_dffesr\._01_
*587 Inst_LA_LUT4c_frame_config_dffesr\._02_
*588 Inst_LA_LUT4c_frame_config_dffesr\._04_
*589 Inst_LA_LUT4c_frame_config_dffesr\._05_
*590 Inst_LA_LUT4c_frame_config_dffesr\._06_
*591 Inst_LA_LUT4c_frame_config_dffesr\._07_
*592 Inst_LA_LUT4c_frame_config_dffesr\._08_
*593 Inst_LA_LUT4c_frame_config_dffesr\._09_
*594 Inst_LA_LUT4c_frame_config_dffesr\.cus_mux21_I0mux\.AIN\[0\]
*595 Inst_LA_LUT4c_frame_config_dffesr\.cus_mux21_I0mux\.AIN\[1\]
*596 Inst_LA_LUT4c_frame_config_dffesr\.cus_mux21_I0mux\._0_
*597 Inst_LA_LUT4c_frame_config_dffesr\.cus_mux21_I0mux\._1_
*598 Inst_LA_LUT4c_frame_config_dffesr\.cus_mux21_O\.AIN\[0\]
*599 Inst_LA_LUT4c_frame_config_dffesr\.cus_mux21_O\.AIN\[1\]
*600 Inst_LA_LUT4c_frame_config_dffesr\.cus_mux21_O\._0_
*601 Inst_LA_LUT4c_frame_config_dffesr\.cus_mux21_O\._1_
*602 Inst_LA_LUT4c_frame_config_dffesr\.inst_cus_mux161_buf\.cus_mux41_buf_out0
*603 Inst_LA_LUT4c_frame_config_dffesr\.inst_cus_mux161_buf\.cus_mux41_buf_out1
*604 Inst_LA_LUT4c_frame_config_dffesr\.inst_cus_mux161_buf\.cus_mux41_buf_out2
*605 Inst_LA_LUT4c_frame_config_dffesr\.inst_cus_mux161_buf\.cus_mux41_buf_out3
*606 Inst_LB_LUT4c_frame_config_dffesr\.Ci
*607 Inst_LB_LUT4c_frame_config_dffesr\.Co
*608 Inst_LB_LUT4c_frame_config_dffesr\.ConfigBits\[0\]
*609 Inst_LB_LUT4c_frame_config_dffesr\.ConfigBits\[10\]
*610 Inst_LB_LUT4c_frame_config_dffesr\.ConfigBits\[11\]
*611 Inst_LB_LUT4c_frame_config_dffesr\.ConfigBits\[12\]
*612 Inst_LB_LUT4c_frame_config_dffesr\.ConfigBits\[13\]
*613 Inst_LB_LUT4c_frame_config_dffesr\.ConfigBits\[14\]
*614 Inst_LB_LUT4c_frame_config_dffesr\.ConfigBits\[15\]
*615 Inst_LB_LUT4c_frame_config_dffesr\.ConfigBits\[16\]
*616 Inst_LB_LUT4c_frame_config_dffesr\.ConfigBits\[17\]
*617 Inst_LB_LUT4c_frame_config_dffesr\.ConfigBits\[18\]
*618 Inst_LB_LUT4c_frame_config_dffesr\.ConfigBits\[1\]
*619 Inst_LB_LUT4c_frame_config_dffesr\.ConfigBits\[2\]
*620 Inst_LB_LUT4c_frame_config_dffesr\.ConfigBits\[3\]
*621 Inst_LB_LUT4c_frame_config_dffesr\.ConfigBits\[4\]
*622 Inst_LB_LUT4c_frame_config_dffesr\.ConfigBits\[5\]
*623 Inst_LB_LUT4c_frame_config_dffesr\.ConfigBits\[6\]
*624 Inst_LB_LUT4c_frame_config_dffesr\.ConfigBits\[7\]
*625 Inst_LB_LUT4c_frame_config_dffesr\.ConfigBits\[8\]
*626 Inst_LB_LUT4c_frame_config_dffesr\.ConfigBits\[9\]
*627 Inst_LB_LUT4c_frame_config_dffesr\.EN
*628 Inst_LB_LUT4c_frame_config_dffesr\.I0mux
*629 Inst_LB_LUT4c_frame_config_dffesr\.I\[0\]
*630 Inst_LB_LUT4c_frame_config_dffesr\.I\[1\]
*631 Inst_LB_LUT4c_frame_config_dffesr\.I\[2\]
*632 Inst_LB_LUT4c_frame_config_dffesr\.I\[3\]
*633 Inst_LB_LUT4c_frame_config_dffesr\.LUT_flop
*634 Inst_LB_LUT4c_frame_config_dffesr\.LUT_out
*635 Inst_LB_LUT4c_frame_config_dffesr\.O
*636 Inst_LB_LUT4c_frame_config_dffesr\.SR
*637 Inst_LB_LUT4c_frame_config_dffesr\._01_
*638 Inst_LB_LUT4c_frame_config_dffesr\._02_
*639 Inst_LB_LUT4c_frame_config_dffesr\._04_
*640 Inst_LB_LUT4c_frame_config_dffesr\._05_
*641 Inst_LB_LUT4c_frame_config_dffesr\._06_
*642 Inst_LB_LUT4c_frame_config_dffesr\._07_
*643 Inst_LB_LUT4c_frame_config_dffesr\._08_
*644 Inst_LB_LUT4c_frame_config_dffesr\._09_
*645 Inst_LB_LUT4c_frame_config_dffesr\.cus_mux21_I0mux\.AIN\[0\]
*646 Inst_LB_LUT4c_frame_config_dffesr\.cus_mux21_I0mux\.AIN\[1\]
*647 Inst_LB_LUT4c_frame_config_dffesr\.cus_mux21_I0mux\._0_
*648 Inst_LB_LUT4c_frame_config_dffesr\.cus_mux21_I0mux\._1_
*649 Inst_LB_LUT4c_frame_config_dffesr\.cus_mux21_O\.AIN\[0\]
*650 Inst_LB_LUT4c_frame_config_dffesr\.cus_mux21_O\.AIN\[1\]
*651 Inst_LB_LUT4c_frame_config_dffesr\.cus_mux21_O\._0_
*652 Inst_LB_LUT4c_frame_config_dffesr\.cus_mux21_O\._1_
*653 Inst_LB_LUT4c_frame_config_dffesr\.inst_cus_mux161_buf\.cus_mux41_buf_out0
*654 Inst_LB_LUT4c_frame_config_dffesr\.inst_cus_mux161_buf\.cus_mux41_buf_out1
*655 Inst_LB_LUT4c_frame_config_dffesr\.inst_cus_mux161_buf\.cus_mux41_buf_out2
*656 Inst_LB_LUT4c_frame_config_dffesr\.inst_cus_mux161_buf\.cus_mux41_buf_out3
*657 Inst_LC_LUT4c_frame_config_dffesr\.Ci
*658 Inst_LC_LUT4c_frame_config_dffesr\.Co
*659 Inst_LC_LUT4c_frame_config_dffesr\.ConfigBits\[0\]
*660 Inst_LC_LUT4c_frame_config_dffesr\.ConfigBits\[10\]
*661 Inst_LC_LUT4c_frame_config_dffesr\.ConfigBits\[11\]
*662 Inst_LC_LUT4c_frame_config_dffesr\.ConfigBits\[12\]
*663 Inst_LC_LUT4c_frame_config_dffesr\.ConfigBits\[13\]
*664 Inst_LC_LUT4c_frame_config_dffesr\.ConfigBits\[14\]
*665 Inst_LC_LUT4c_frame_config_dffesr\.ConfigBits\[15\]
*666 Inst_LC_LUT4c_frame_config_dffesr\.ConfigBits\[16\]
*667 Inst_LC_LUT4c_frame_config_dffesr\.ConfigBits\[17\]
*668 Inst_LC_LUT4c_frame_config_dffesr\.ConfigBits\[18\]
*669 Inst_LC_LUT4c_frame_config_dffesr\.ConfigBits\[1\]
*670 Inst_LC_LUT4c_frame_config_dffesr\.ConfigBits\[2\]
*671 Inst_LC_LUT4c_frame_config_dffesr\.ConfigBits\[3\]
*672 Inst_LC_LUT4c_frame_config_dffesr\.ConfigBits\[4\]
*673 Inst_LC_LUT4c_frame_config_dffesr\.ConfigBits\[5\]
*674 Inst_LC_LUT4c_frame_config_dffesr\.ConfigBits\[6\]
*675 Inst_LC_LUT4c_frame_config_dffesr\.ConfigBits\[7\]
*676 Inst_LC_LUT4c_frame_config_dffesr\.ConfigBits\[8\]
*677 Inst_LC_LUT4c_frame_config_dffesr\.ConfigBits\[9\]
*678 Inst_LC_LUT4c_frame_config_dffesr\.EN
*679 Inst_LC_LUT4c_frame_config_dffesr\.I0mux
*680 Inst_LC_LUT4c_frame_config_dffesr\.I\[0\]
*681 Inst_LC_LUT4c_frame_config_dffesr\.I\[1\]
*682 Inst_LC_LUT4c_frame_config_dffesr\.I\[2\]
*683 Inst_LC_LUT4c_frame_config_dffesr\.I\[3\]
*684 Inst_LC_LUT4c_frame_config_dffesr\.LUT_flop
*685 Inst_LC_LUT4c_frame_config_dffesr\.LUT_out
*686 Inst_LC_LUT4c_frame_config_dffesr\.O
*687 Inst_LC_LUT4c_frame_config_dffesr\.SR
*688 Inst_LC_LUT4c_frame_config_dffesr\._01_
*689 Inst_LC_LUT4c_frame_config_dffesr\._02_
*690 Inst_LC_LUT4c_frame_config_dffesr\._04_
*691 Inst_LC_LUT4c_frame_config_dffesr\._05_
*692 Inst_LC_LUT4c_frame_config_dffesr\._06_
*693 Inst_LC_LUT4c_frame_config_dffesr\._07_
*694 Inst_LC_LUT4c_frame_config_dffesr\._08_
*695 Inst_LC_LUT4c_frame_config_dffesr\._09_
*696 Inst_LC_LUT4c_frame_config_dffesr\.cus_mux21_I0mux\.AIN\[0\]
*697 Inst_LC_LUT4c_frame_config_dffesr\.cus_mux21_I0mux\.AIN\[1\]
*698 Inst_LC_LUT4c_frame_config_dffesr\.cus_mux21_I0mux\._0_
*699 Inst_LC_LUT4c_frame_config_dffesr\.cus_mux21_I0mux\._1_
*700 Inst_LC_LUT4c_frame_config_dffesr\.cus_mux21_O\.AIN\[0\]
*701 Inst_LC_LUT4c_frame_config_dffesr\.cus_mux21_O\.AIN\[1\]
*702 Inst_LC_LUT4c_frame_config_dffesr\.cus_mux21_O\._0_
*703 Inst_LC_LUT4c_frame_config_dffesr\.cus_mux21_O\._1_
*704 Inst_LC_LUT4c_frame_config_dffesr\.inst_cus_mux161_buf\.cus_mux41_buf_out0
*705 Inst_LC_LUT4c_frame_config_dffesr\.inst_cus_mux161_buf\.cus_mux41_buf_out1
*706 Inst_LC_LUT4c_frame_config_dffesr\.inst_cus_mux161_buf\.cus_mux41_buf_out2
*707 Inst_LC_LUT4c_frame_config_dffesr\.inst_cus_mux161_buf\.cus_mux41_buf_out3
*708 Inst_LD_LUT4c_frame_config_dffesr\.Ci
*709 Inst_LD_LUT4c_frame_config_dffesr\.Co
*710 Inst_LD_LUT4c_frame_config_dffesr\.ConfigBits\[0\]
*711 Inst_LD_LUT4c_frame_config_dffesr\.ConfigBits\[10\]
*712 Inst_LD_LUT4c_frame_config_dffesr\.ConfigBits\[11\]
*713 Inst_LD_LUT4c_frame_config_dffesr\.ConfigBits\[12\]
*714 Inst_LD_LUT4c_frame_config_dffesr\.ConfigBits\[13\]
*715 Inst_LD_LUT4c_frame_config_dffesr\.ConfigBits\[14\]
*716 Inst_LD_LUT4c_frame_config_dffesr\.ConfigBits\[15\]
*717 Inst_LD_LUT4c_frame_config_dffesr\.ConfigBits\[16\]
*718 Inst_LD_LUT4c_frame_config_dffesr\.ConfigBits\[17\]
*719 Inst_LD_LUT4c_frame_config_dffesr\.ConfigBits\[18\]
*720 Inst_LD_LUT4c_frame_config_dffesr\.ConfigBits\[1\]
*721 Inst_LD_LUT4c_frame_config_dffesr\.ConfigBits\[2\]
*722 Inst_LD_LUT4c_frame_config_dffesr\.ConfigBits\[3\]
*723 Inst_LD_LUT4c_frame_config_dffesr\.ConfigBits\[4\]
*724 Inst_LD_LUT4c_frame_config_dffesr\.ConfigBits\[5\]
*725 Inst_LD_LUT4c_frame_config_dffesr\.ConfigBits\[6\]
*726 Inst_LD_LUT4c_frame_config_dffesr\.ConfigBits\[7\]
*727 Inst_LD_LUT4c_frame_config_dffesr\.ConfigBits\[8\]
*728 Inst_LD_LUT4c_frame_config_dffesr\.ConfigBits\[9\]
*729 Inst_LD_LUT4c_frame_config_dffesr\.EN
*730 Inst_LD_LUT4c_frame_config_dffesr\.I0mux
*731 Inst_LD_LUT4c_frame_config_dffesr\.I\[0\]
*732 Inst_LD_LUT4c_frame_config_dffesr\.I\[1\]
*733 Inst_LD_LUT4c_frame_config_dffesr\.I\[2\]
*734 Inst_LD_LUT4c_frame_config_dffesr\.I\[3\]
*735 Inst_LD_LUT4c_frame_config_dffesr\.LUT_flop
*736 Inst_LD_LUT4c_frame_config_dffesr\.LUT_out
*737 Inst_LD_LUT4c_frame_config_dffesr\.O
*738 Inst_LD_LUT4c_frame_config_dffesr\.SR
*739 Inst_LD_LUT4c_frame_config_dffesr\._01_
*740 Inst_LD_LUT4c_frame_config_dffesr\._02_
*741 Inst_LD_LUT4c_frame_config_dffesr\._04_
*742 Inst_LD_LUT4c_frame_config_dffesr\._05_
*743 Inst_LD_LUT4c_frame_config_dffesr\._06_
*744 Inst_LD_LUT4c_frame_config_dffesr\._07_
*745 Inst_LD_LUT4c_frame_config_dffesr\._08_
*746 Inst_LD_LUT4c_frame_config_dffesr\._09_
*747 Inst_LD_LUT4c_frame_config_dffesr\.cus_mux21_I0mux\.AIN\[0\]
*748 Inst_LD_LUT4c_frame_config_dffesr\.cus_mux21_I0mux\.AIN\[1\]
*749 Inst_LD_LUT4c_frame_config_dffesr\.cus_mux21_I0mux\._0_
*750 Inst_LD_LUT4c_frame_config_dffesr\.cus_mux21_I0mux\._1_
*751 Inst_LD_LUT4c_frame_config_dffesr\.cus_mux21_O\.AIN\[0\]
*752 Inst_LD_LUT4c_frame_config_dffesr\.cus_mux21_O\.AIN\[1\]
*753 Inst_LD_LUT4c_frame_config_dffesr\.cus_mux21_O\._0_
*754 Inst_LD_LUT4c_frame_config_dffesr\.cus_mux21_O\._1_
*755 Inst_LD_LUT4c_frame_config_dffesr\.inst_cus_mux161_buf\.cus_mux41_buf_out0
*756 Inst_LD_LUT4c_frame_config_dffesr\.inst_cus_mux161_buf\.cus_mux41_buf_out1
*757 Inst_LD_LUT4c_frame_config_dffesr\.inst_cus_mux161_buf\.cus_mux41_buf_out2
*758 Inst_LD_LUT4c_frame_config_dffesr\.inst_cus_mux161_buf\.cus_mux41_buf_out3
*759 Inst_LE_LUT4c_frame_config_dffesr\.Ci
*760 Inst_LE_LUT4c_frame_config_dffesr\.Co
*761 Inst_LE_LUT4c_frame_config_dffesr\.ConfigBits\[0\]
*762 Inst_LE_LUT4c_frame_config_dffesr\.ConfigBits\[10\]
*763 Inst_LE_LUT4c_frame_config_dffesr\.ConfigBits\[11\]
*764 Inst_LE_LUT4c_frame_config_dffesr\.ConfigBits\[12\]
*765 Inst_LE_LUT4c_frame_config_dffesr\.ConfigBits\[13\]
*766 Inst_LE_LUT4c_frame_config_dffesr\.ConfigBits\[14\]
*767 Inst_LE_LUT4c_frame_config_dffesr\.ConfigBits\[15\]
*768 Inst_LE_LUT4c_frame_config_dffesr\.ConfigBits\[16\]
*769 Inst_LE_LUT4c_frame_config_dffesr\.ConfigBits\[17\]
*770 Inst_LE_LUT4c_frame_config_dffesr\.ConfigBits\[18\]
*771 Inst_LE_LUT4c_frame_config_dffesr\.ConfigBits\[1\]
*772 Inst_LE_LUT4c_frame_config_dffesr\.ConfigBits\[2\]
*773 Inst_LE_LUT4c_frame_config_dffesr\.ConfigBits\[3\]
*774 Inst_LE_LUT4c_frame_config_dffesr\.ConfigBits\[4\]
*775 Inst_LE_LUT4c_frame_config_dffesr\.ConfigBits\[5\]
*776 Inst_LE_LUT4c_frame_config_dffesr\.ConfigBits\[6\]
*777 Inst_LE_LUT4c_frame_config_dffesr\.ConfigBits\[7\]
*778 Inst_LE_LUT4c_frame_config_dffesr\.ConfigBits\[8\]
*779 Inst_LE_LUT4c_frame_config_dffesr\.ConfigBits\[9\]
*780 Inst_LE_LUT4c_frame_config_dffesr\.EN
*781 Inst_LE_LUT4c_frame_config_dffesr\.I0mux
*782 Inst_LE_LUT4c_frame_config_dffesr\.I\[0\]
*783 Inst_LE_LUT4c_frame_config_dffesr\.I\[1\]
*784 Inst_LE_LUT4c_frame_config_dffesr\.I\[2\]
*785 Inst_LE_LUT4c_frame_config_dffesr\.I\[3\]
*786 Inst_LE_LUT4c_frame_config_dffesr\.LUT_flop
*787 Inst_LE_LUT4c_frame_config_dffesr\.LUT_out
*788 Inst_LE_LUT4c_frame_config_dffesr\.O
*789 Inst_LE_LUT4c_frame_config_dffesr\.SR
*790 Inst_LE_LUT4c_frame_config_dffesr\._01_
*791 Inst_LE_LUT4c_frame_config_dffesr\._02_
*792 Inst_LE_LUT4c_frame_config_dffesr\._04_
*793 Inst_LE_LUT4c_frame_config_dffesr\._05_
*794 Inst_LE_LUT4c_frame_config_dffesr\._06_
*795 Inst_LE_LUT4c_frame_config_dffesr\._07_
*796 Inst_LE_LUT4c_frame_config_dffesr\._08_
*797 Inst_LE_LUT4c_frame_config_dffesr\._09_
*798 Inst_LE_LUT4c_frame_config_dffesr\.cus_mux21_I0mux\.AIN\[0\]
*799 Inst_LE_LUT4c_frame_config_dffesr\.cus_mux21_I0mux\.AIN\[1\]
*800 Inst_LE_LUT4c_frame_config_dffesr\.cus_mux21_I0mux\._0_
*801 Inst_LE_LUT4c_frame_config_dffesr\.cus_mux21_I0mux\._1_
*802 Inst_LE_LUT4c_frame_config_dffesr\.cus_mux21_O\.AIN\[0\]
*803 Inst_LE_LUT4c_frame_config_dffesr\.cus_mux21_O\.AIN\[1\]
*804 Inst_LE_LUT4c_frame_config_dffesr\.cus_mux21_O\._0_
*805 Inst_LE_LUT4c_frame_config_dffesr\.cus_mux21_O\._1_
*806 Inst_LE_LUT4c_frame_config_dffesr\.inst_cus_mux161_buf\.cus_mux41_buf_out0
*807 Inst_LE_LUT4c_frame_config_dffesr\.inst_cus_mux161_buf\.cus_mux41_buf_out1
*808 Inst_LE_LUT4c_frame_config_dffesr\.inst_cus_mux161_buf\.cus_mux41_buf_out2
*809 Inst_LE_LUT4c_frame_config_dffesr\.inst_cus_mux161_buf\.cus_mux41_buf_out3
*810 Inst_LF_LUT4c_frame_config_dffesr\.Ci
*811 Inst_LF_LUT4c_frame_config_dffesr\.Co
*812 Inst_LF_LUT4c_frame_config_dffesr\.ConfigBits\[0\]
*813 Inst_LF_LUT4c_frame_config_dffesr\.ConfigBits\[10\]
*814 Inst_LF_LUT4c_frame_config_dffesr\.ConfigBits\[11\]
*815 Inst_LF_LUT4c_frame_config_dffesr\.ConfigBits\[12\]
*816 Inst_LF_LUT4c_frame_config_dffesr\.ConfigBits\[13\]
*817 Inst_LF_LUT4c_frame_config_dffesr\.ConfigBits\[14\]
*818 Inst_LF_LUT4c_frame_config_dffesr\.ConfigBits\[15\]
*819 Inst_LF_LUT4c_frame_config_dffesr\.ConfigBits\[16\]
*820 Inst_LF_LUT4c_frame_config_dffesr\.ConfigBits\[17\]
*821 Inst_LF_LUT4c_frame_config_dffesr\.ConfigBits\[18\]
*822 Inst_LF_LUT4c_frame_config_dffesr\.ConfigBits\[1\]
*823 Inst_LF_LUT4c_frame_config_dffesr\.ConfigBits\[2\]
*824 Inst_LF_LUT4c_frame_config_dffesr\.ConfigBits\[3\]
*825 Inst_LF_LUT4c_frame_config_dffesr\.ConfigBits\[4\]
*826 Inst_LF_LUT4c_frame_config_dffesr\.ConfigBits\[5\]
*827 Inst_LF_LUT4c_frame_config_dffesr\.ConfigBits\[6\]
*828 Inst_LF_LUT4c_frame_config_dffesr\.ConfigBits\[7\]
*829 Inst_LF_LUT4c_frame_config_dffesr\.ConfigBits\[8\]
*830 Inst_LF_LUT4c_frame_config_dffesr\.ConfigBits\[9\]
*831 Inst_LF_LUT4c_frame_config_dffesr\.EN
*832 Inst_LF_LUT4c_frame_config_dffesr\.I0mux
*833 Inst_LF_LUT4c_frame_config_dffesr\.I\[0\]
*834 Inst_LF_LUT4c_frame_config_dffesr\.I\[1\]
*835 Inst_LF_LUT4c_frame_config_dffesr\.I\[2\]
*836 Inst_LF_LUT4c_frame_config_dffesr\.I\[3\]
*837 Inst_LF_LUT4c_frame_config_dffesr\.LUT_flop
*838 Inst_LF_LUT4c_frame_config_dffesr\.LUT_out
*839 Inst_LF_LUT4c_frame_config_dffesr\.O
*840 Inst_LF_LUT4c_frame_config_dffesr\.SR
*841 Inst_LF_LUT4c_frame_config_dffesr\._01_
*842 Inst_LF_LUT4c_frame_config_dffesr\._02_
*843 Inst_LF_LUT4c_frame_config_dffesr\._04_
*844 Inst_LF_LUT4c_frame_config_dffesr\._05_
*845 Inst_LF_LUT4c_frame_config_dffesr\._06_
*846 Inst_LF_LUT4c_frame_config_dffesr\._07_
*847 Inst_LF_LUT4c_frame_config_dffesr\._08_
*848 Inst_LF_LUT4c_frame_config_dffesr\._09_
*849 Inst_LF_LUT4c_frame_config_dffesr\.cus_mux21_I0mux\.AIN\[0\]
*850 Inst_LF_LUT4c_frame_config_dffesr\.cus_mux21_I0mux\.AIN\[1\]
*851 Inst_LF_LUT4c_frame_config_dffesr\.cus_mux21_I0mux\._0_
*852 Inst_LF_LUT4c_frame_config_dffesr\.cus_mux21_I0mux\._1_
*853 Inst_LF_LUT4c_frame_config_dffesr\.cus_mux21_O\.AIN\[0\]
*854 Inst_LF_LUT4c_frame_config_dffesr\.cus_mux21_O\.AIN\[1\]
*855 Inst_LF_LUT4c_frame_config_dffesr\.cus_mux21_O\._0_
*856 Inst_LF_LUT4c_frame_config_dffesr\.cus_mux21_O\._1_
*857 Inst_LF_LUT4c_frame_config_dffesr\.inst_cus_mux161_buf\.cus_mux41_buf_out0
*858 Inst_LF_LUT4c_frame_config_dffesr\.inst_cus_mux161_buf\.cus_mux41_buf_out1
*859 Inst_LF_LUT4c_frame_config_dffesr\.inst_cus_mux161_buf\.cus_mux41_buf_out2
*860 Inst_LF_LUT4c_frame_config_dffesr\.inst_cus_mux161_buf\.cus_mux41_buf_out3
*861 Inst_LG_LUT4c_frame_config_dffesr\.Ci
*862 Inst_LG_LUT4c_frame_config_dffesr\.Co
*863 Inst_LG_LUT4c_frame_config_dffesr\.ConfigBits\[0\]
*864 Inst_LG_LUT4c_frame_config_dffesr\.ConfigBits\[10\]
*865 Inst_LG_LUT4c_frame_config_dffesr\.ConfigBits\[11\]
*866 Inst_LG_LUT4c_frame_config_dffesr\.ConfigBits\[12\]
*867 Inst_LG_LUT4c_frame_config_dffesr\.ConfigBits\[13\]
*868 Inst_LG_LUT4c_frame_config_dffesr\.ConfigBits\[14\]
*869 Inst_LG_LUT4c_frame_config_dffesr\.ConfigBits\[15\]
*870 Inst_LG_LUT4c_frame_config_dffesr\.ConfigBits\[16\]
*871 Inst_LG_LUT4c_frame_config_dffesr\.ConfigBits\[17\]
*872 Inst_LG_LUT4c_frame_config_dffesr\.ConfigBits\[18\]
*873 Inst_LG_LUT4c_frame_config_dffesr\.ConfigBits\[1\]
*874 Inst_LG_LUT4c_frame_config_dffesr\.ConfigBits\[2\]
*875 Inst_LG_LUT4c_frame_config_dffesr\.ConfigBits\[3\]
*876 Inst_LG_LUT4c_frame_config_dffesr\.ConfigBits\[4\]
*877 Inst_LG_LUT4c_frame_config_dffesr\.ConfigBits\[5\]
*878 Inst_LG_LUT4c_frame_config_dffesr\.ConfigBits\[6\]
*879 Inst_LG_LUT4c_frame_config_dffesr\.ConfigBits\[7\]
*880 Inst_LG_LUT4c_frame_config_dffesr\.ConfigBits\[8\]
*881 Inst_LG_LUT4c_frame_config_dffesr\.ConfigBits\[9\]
*882 Inst_LG_LUT4c_frame_config_dffesr\.EN
*883 Inst_LG_LUT4c_frame_config_dffesr\.I0mux
*884 Inst_LG_LUT4c_frame_config_dffesr\.I\[0\]
*885 Inst_LG_LUT4c_frame_config_dffesr\.I\[1\]
*886 Inst_LG_LUT4c_frame_config_dffesr\.I\[2\]
*887 Inst_LG_LUT4c_frame_config_dffesr\.I\[3\]
*888 Inst_LG_LUT4c_frame_config_dffesr\.LUT_flop
*889 Inst_LG_LUT4c_frame_config_dffesr\.LUT_out
*890 Inst_LG_LUT4c_frame_config_dffesr\.O
*891 Inst_LG_LUT4c_frame_config_dffesr\.SR
*892 Inst_LG_LUT4c_frame_config_dffesr\._01_
*893 Inst_LG_LUT4c_frame_config_dffesr\._02_
*894 Inst_LG_LUT4c_frame_config_dffesr\._04_
*895 Inst_LG_LUT4c_frame_config_dffesr\._05_
*896 Inst_LG_LUT4c_frame_config_dffesr\._06_
*897 Inst_LG_LUT4c_frame_config_dffesr\._07_
*898 Inst_LG_LUT4c_frame_config_dffesr\._08_
*899 Inst_LG_LUT4c_frame_config_dffesr\._09_
*900 Inst_LG_LUT4c_frame_config_dffesr\.cus_mux21_I0mux\.AIN\[0\]
*901 Inst_LG_LUT4c_frame_config_dffesr\.cus_mux21_I0mux\.AIN\[1\]
*902 Inst_LG_LUT4c_frame_config_dffesr\.cus_mux21_I0mux\._0_
*903 Inst_LG_LUT4c_frame_config_dffesr\.cus_mux21_I0mux\._1_
*904 Inst_LG_LUT4c_frame_config_dffesr\.cus_mux21_O\.AIN\[0\]
*905 Inst_LG_LUT4c_frame_config_dffesr\.cus_mux21_O\.AIN\[1\]
*906 Inst_LG_LUT4c_frame_config_dffesr\.cus_mux21_O\._0_
*907 Inst_LG_LUT4c_frame_config_dffesr\.cus_mux21_O\._1_
*908 Inst_LG_LUT4c_frame_config_dffesr\.inst_cus_mux161_buf\.cus_mux41_buf_out0
*909 Inst_LG_LUT4c_frame_config_dffesr\.inst_cus_mux161_buf\.cus_mux41_buf_out1
*910 Inst_LG_LUT4c_frame_config_dffesr\.inst_cus_mux161_buf\.cus_mux41_buf_out2
*911 Inst_LG_LUT4c_frame_config_dffesr\.inst_cus_mux161_buf\.cus_mux41_buf_out3
*912 Inst_LH_LUT4c_frame_config_dffesr\.Ci
*913 Inst_LH_LUT4c_frame_config_dffesr\.Co
*914 Inst_LH_LUT4c_frame_config_dffesr\.ConfigBits\[0\]
*915 Inst_LH_LUT4c_frame_config_dffesr\.ConfigBits\[10\]
*916 Inst_LH_LUT4c_frame_config_dffesr\.ConfigBits\[11\]
*917 Inst_LH_LUT4c_frame_config_dffesr\.ConfigBits\[12\]
*918 Inst_LH_LUT4c_frame_config_dffesr\.ConfigBits\[13\]
*919 Inst_LH_LUT4c_frame_config_dffesr\.ConfigBits\[14\]
*920 Inst_LH_LUT4c_frame_config_dffesr\.ConfigBits\[15\]
*921 Inst_LH_LUT4c_frame_config_dffesr\.ConfigBits\[16\]
*922 Inst_LH_LUT4c_frame_config_dffesr\.ConfigBits\[17\]
*923 Inst_LH_LUT4c_frame_config_dffesr\.ConfigBits\[18\]
*924 Inst_LH_LUT4c_frame_config_dffesr\.ConfigBits\[1\]
*925 Inst_LH_LUT4c_frame_config_dffesr\.ConfigBits\[2\]
*926 Inst_LH_LUT4c_frame_config_dffesr\.ConfigBits\[3\]
*927 Inst_LH_LUT4c_frame_config_dffesr\.ConfigBits\[4\]
*928 Inst_LH_LUT4c_frame_config_dffesr\.ConfigBits\[5\]
*929 Inst_LH_LUT4c_frame_config_dffesr\.ConfigBits\[6\]
*930 Inst_LH_LUT4c_frame_config_dffesr\.ConfigBits\[7\]
*931 Inst_LH_LUT4c_frame_config_dffesr\.ConfigBits\[8\]
*932 Inst_LH_LUT4c_frame_config_dffesr\.ConfigBits\[9\]
*933 Inst_LH_LUT4c_frame_config_dffesr\.EN