*SPEF "ieee 1481-1999"
*DESIGN "N_term_RAM_IO"
*DATE "11:11:11 Fri 11 11, 1111"
*VENDOR "OpenRCX"
*PROGRAM "Parallel Extraction"
*VERSION "1.0"
*DESIGN_FLOW "NAME_SCOPE LOCAL" "PIN_CAP NONE"
*DIVIDER /
*DELIMITER :
*BUS_DELIMITER []
*T_UNIT 1 NS
*C_UNIT 1 PF
*R_UNIT 1 OHM
*L_UNIT 1 HENRY

*NAME_MAP
*1 FrameStrobe[0]
*2 FrameStrobe[10]
*3 FrameStrobe[11]
*4 FrameStrobe[12]
*5 FrameStrobe[13]
*6 FrameStrobe[14]
*7 FrameStrobe[15]
*8 FrameStrobe[16]
*9 FrameStrobe[17]
*10 FrameStrobe[18]
*11 FrameStrobe[19]
*12 FrameStrobe[1]
*13 FrameStrobe[2]
*14 FrameStrobe[3]
*15 FrameStrobe[4]
*16 FrameStrobe[5]
*17 FrameStrobe[6]
*18 FrameStrobe[7]
*19 FrameStrobe[8]
*20 FrameStrobe[9]
*21 FrameStrobe_O[0]
*22 FrameStrobe_O[10]
*23 FrameStrobe_O[11]
*24 FrameStrobe_O[12]
*25 FrameStrobe_O[13]
*26 FrameStrobe_O[14]
*27 FrameStrobe_O[15]
*28 FrameStrobe_O[16]
*29 FrameStrobe_O[17]
*30 FrameStrobe_O[18]
*31 FrameStrobe_O[19]
*32 FrameStrobe_O[1]
*33 FrameStrobe_O[2]
*34 FrameStrobe_O[3]
*35 FrameStrobe_O[4]
*36 FrameStrobe_O[5]
*37 FrameStrobe_O[6]
*38 FrameStrobe_O[7]
*39 FrameStrobe_O[8]
*40 FrameStrobe_O[9]
*41 N1END[0]
*42 N1END[1]
*43 N1END[2]
*44 N1END[3]
*45 N2END[0]
*46 N2END[1]
*47 N2END[2]
*48 N2END[3]
*49 N2END[4]
*50 N2END[5]
*51 N2END[6]
*52 N2END[7]
*53 N2MID[0]
*54 N2MID[1]
*55 N2MID[2]
*56 N2MID[3]
*57 N2MID[4]
*58 N2MID[5]
*59 N2MID[6]
*60 N2MID[7]
*61 N4END[0]
*62 N4END[10]
*63 N4END[11]
*64 N4END[12]
*65 N4END[13]
*66 N4END[14]
*67 N4END[15]
*68 N4END[1]
*69 N4END[2]
*70 N4END[3]
*71 N4END[4]
*72 N4END[5]
*73 N4END[6]
*74 N4END[7]
*75 N4END[8]
*76 N4END[9]
*77 S1BEG[0]
*78 S1BEG[1]
*79 S1BEG[2]
*80 S1BEG[3]
*81 S2BEG[0]
*82 S2BEG[1]
*83 S2BEG[2]
*84 S2BEG[3]
*85 S2BEG[4]
*86 S2BEG[5]
*87 S2BEG[6]
*88 S2BEG[7]
*89 S2BEGb[0]
*90 S2BEGb[1]
*91 S2BEGb[2]
*92 S2BEGb[3]
*93 S2BEGb[4]
*94 S2BEGb[5]
*95 S2BEGb[6]
*96 S2BEGb[7]
*97 S4BEG[0]
*98 S4BEG[10]
*99 S4BEG[11]
*100 S4BEG[12]
*101 S4BEG[13]
*102 S4BEG[14]
*103 S4BEG[15]
*104 S4BEG[1]
*105 S4BEG[2]
*106 S4BEG[3]
*107 S4BEG[4]
*108 S4BEG[5]
*109 S4BEG[6]
*110 S4BEG[7]
*111 S4BEG[8]
*112 S4BEG[9]
*113 UserCLK
*114 UserCLKo
*117 Inst_N_term_RAM_IO_switch_matrix\.S1BEG0
*118 Inst_N_term_RAM_IO_switch_matrix\.S1BEG1
*119 Inst_N_term_RAM_IO_switch_matrix\.S1BEG2
*120 Inst_N_term_RAM_IO_switch_matrix\.S1BEG3
*121 Inst_N_term_RAM_IO_switch_matrix\.S2BEG0
*122 Inst_N_term_RAM_IO_switch_matrix\.S2BEG1
*123 Inst_N_term_RAM_IO_switch_matrix\.S2BEG2
*124 Inst_N_term_RAM_IO_switch_matrix\.S2BEG3
*125 Inst_N_term_RAM_IO_switch_matrix\.S2BEG4
*126 Inst_N_term_RAM_IO_switch_matrix\.S2BEG5
*127 Inst_N_term_RAM_IO_switch_matrix\.S2BEG6
*128 Inst_N_term_RAM_IO_switch_matrix\.S2BEG7
*129 Inst_N_term_RAM_IO_switch_matrix\.S2BEGb0
*130 Inst_N_term_RAM_IO_switch_matrix\.S2BEGb1
*131 Inst_N_term_RAM_IO_switch_matrix\.S2BEGb2
*132 Inst_N_term_RAM_IO_switch_matrix\.S2BEGb3
*133 Inst_N_term_RAM_IO_switch_matrix\.S2BEGb4
*134 Inst_N_term_RAM_IO_switch_matrix\.S2BEGb5
*135 Inst_N_term_RAM_IO_switch_matrix\.S2BEGb6
*136 Inst_N_term_RAM_IO_switch_matrix\.S2BEGb7
*137 Inst_N_term_RAM_IO_switch_matrix\.S4BEG0
*138 Inst_N_term_RAM_IO_switch_matrix\.S4BEG1
*139 Inst_N_term_RAM_IO_switch_matrix\.S4BEG10
*140 Inst_N_term_RAM_IO_switch_matrix\.S4BEG11
*141 Inst_N_term_RAM_IO_switch_matrix\.S4BEG12
*142 Inst_N_term_RAM_IO_switch_matrix\.S4BEG13
*143 Inst_N_term_RAM_IO_switch_matrix\.S4BEG14
*144 Inst_N_term_RAM_IO_switch_matrix\.S4BEG15
*145 Inst_N_term_RAM_IO_switch_matrix\.S4BEG2
*146 Inst_N_term_RAM_IO_switch_matrix\.S4BEG3
*147 Inst_N_term_RAM_IO_switch_matrix\.S4BEG4
*148 Inst_N_term_RAM_IO_switch_matrix\.S4BEG5
*149 Inst_N_term_RAM_IO_switch_matrix\.S4BEG6
*150 Inst_N_term_RAM_IO_switch_matrix\.S4BEG7
*151 Inst_N_term_RAM_IO_switch_matrix\.S4BEG8
*152 Inst_N_term_RAM_IO_switch_matrix\.S4BEG9
*153 net1
*154 net10
*155 net100
*156 net101
*157 net102
*158 net103
*159 net104
*160 net105
*161 net106
*162 net107
*163 net108
*164 net109
*165 net11
*166 net110
*167 net111
*168 net112
*169 net113
*170 net114
*171 net12
*172 net13
*173 net14
*174 net15
*175 net16
*176 net17
*177 net18
*178 net19
*179 net2
*180 net20
*181 net21
*182 net22
*183 net23
*184 net24
*185 net25
*186 net26
*187 net27
*188 net28
*189 net29
*190 net3
*191 net30
*192 net31
*193 net32
*194 net33
*195 net34
*196 net35
*197 net36
*198 net37
*199 net38
*200 net39
*201 net4
*202 net40
*203 net41
*204 net42
*205 net43
*206 net44
*207 net45
*208 net46
*209 net47
*210 net48
*211 net49
*212 net5
*213 net50
*214 net51
*215 net52
*216 net53
*217 net54
*218 net55
*219 net56
*220 net57
*221 net58
*222 net59
*223 net6
*224 net60
*225 net61
*226 net62
*227 net63
*228 net64
*229 net65
*230 net66
*231 net67
*232 net68
*233 net69
*234 net7
*235 net70
*236 net71
*237 net72
*238 net73
*239 net74
*240 net75
*241 net76
*242 net77
*243 net78
*244 net79
*245 net8
*246 net80
*247 net81
*248 net82
*249 net83
*250 net84
*251 net85
*252 net86
*253 net87
*254 net88
*255 net89
*256 net9
*257 net90
*258 net91
*259 net92
*260 net93
*261 net94
*262 net95
*263 net96
*264 net97
*265 net98
*266 net99
*267 strobe_inbuf_0\.X
*268 strobe_inbuf_1\.X
*269 strobe_inbuf_10\.X
*270 strobe_inbuf_11\.X
*271 strobe_inbuf_12\.X
*272 strobe_inbuf_13\.X
*273 strobe_inbuf_14\.X
*274 strobe_inbuf_15\.X
*275 strobe_inbuf_16\.X
*276 strobe_inbuf_17\.X
*277 strobe_inbuf_18\.X
*278 strobe_inbuf_19\.X
*279 strobe_inbuf_2\.X
*280 strobe_inbuf_3\.X
*281 strobe_inbuf_4\.X
*282 strobe_inbuf_5\.X
*283 strobe_inbuf_6\.X
*284 strobe_inbuf_7\.X
*285 strobe_inbuf_8\.X
*286 strobe_inbuf_9\.X
*287 strobe_outbuf_0\.X
*288 strobe_outbuf_1\.X
*289 strobe_outbuf_10\.X
*290 strobe_outbuf_11\.X
*291 strobe_outbuf_12\.X
*292 strobe_outbuf_13\.X
*293 strobe_outbuf_14\.X
*294 strobe_outbuf_15\.X
*295 strobe_outbuf_16\.X
*296 strobe_outbuf_17\.X
*297 strobe_outbuf_18\.X
*298 strobe_outbuf_19\.X
*299 strobe_outbuf_2\.X
*300 strobe_outbuf_3\.X
*301 strobe_outbuf_4\.X
*302 strobe_outbuf_5\.X
*303 strobe_outbuf_6\.X
*304 strobe_outbuf_7\.X
*305 strobe_outbuf_8\.X
*306 strobe_outbuf_9\.X
*307 ANTENNA_1
*308 ANTENNA_2
*309 FILLER_0_0_110
*310 FILLER_0_0_126
*311 FILLER_0_0_136
*312 FILLER_0_0_151
*313 FILLER_0_0_253
*314 FILLER_0_0_3
*315 FILLER_0_0_85
*316 FILLER_0_1_10
*317 FILLER_0_1_138
*318 FILLER_0_1_169
*319 FILLER_0_1_231
*320 FILLER_0_1_241
*321 FILLER_0_1_254
*322 FILLER_0_1_3
*323 FILLER_0_1_57
*324 FILLER_0_2_102
*325 FILLER_0_2_106
*326 FILLER_0_2_110
*327 FILLER_0_2_128
*328 FILLER_0_2_133
*329 FILLER_0_2_139
*330 FILLER_0_2_141
*331 FILLER_0_2_149
*332 FILLER_0_2_15
*333 FILLER_0_2_158
*334 FILLER_0_2_195
*335 FILLER_0_2_215
*336 FILLER_0_2_227
*337 FILLER_0_2_253
*338 FILLER_0_2_27
*339 FILLER_0_2_29
*340 FILLER_0_2_37
*341 FILLER_0_2_42
*342 FILLER_0_2_57
*343 FILLER_0_2_65
*344 FILLER_0_2_69
*345 FILLER_0_2_81
*346 FILLER_0_2_85
*347 FILLER_0_2_89
*348 FILLER_0_2_96
*349 FILLER_0_3_105
*350 FILLER_0_3_111
*351 FILLER_0_3_113
*352 FILLER_0_3_125
*353 FILLER_0_3_137
*354 FILLER_0_3_149
*355 FILLER_0_3_15
*356 FILLER_0_3_161
*357 FILLER_0_3_167
*358 FILLER_0_3_169
*359 FILLER_0_3_181
*360 FILLER_0_3_193
*361 FILLER_0_3_205
*362 FILLER_0_3_217
*363 FILLER_0_3_223
*364 FILLER_0_3_225
*365 FILLER_0_3_237
*366 FILLER_0_3_253
*367 FILLER_0_3_27
*368 FILLER_0_3_3
*369 FILLER_0_3_39
*370 FILLER_0_3_51
*371 FILLER_0_3_55
*372 FILLER_0_3_57
*373 FILLER_0_3_69
*374 FILLER_0_3_81
*375 FILLER_0_3_93
*376 FILLER_0_4_109
*377 FILLER_0_4_121
*378 FILLER_0_4_133
*379 FILLER_0_4_139
*380 FILLER_0_4_141
*381 FILLER_0_4_15
*382 FILLER_0_4_153
*383 FILLER_0_4_165
*384 FILLER_0_4_177
*385 FILLER_0_4_189
*386 FILLER_0_4_195
*387 FILLER_0_4_197
*388 FILLER_0_4_209
*389 FILLER_0_4_221
*390 FILLER_0_4_233
*391 FILLER_0_4_245
*392 FILLER_0_4_251
*393 FILLER_0_4_253
*394 FILLER_0_4_27
*395 FILLER_0_4_29
*396 FILLER_0_4_3
*397 FILLER_0_4_41
*398 FILLER_0_4_53
*399 FILLER_0_4_65
*400 FILLER_0_4_77
*401 FILLER_0_4_83
*402 FILLER_0_4_85
*403 FILLER_0_4_97
*404 FILLER_0_5_105
*405 FILLER_0_5_111
*406 FILLER_0_5_113
*407 FILLER_0_5_125
*408 FILLER_0_5_137
*409 FILLER_0_5_149
*410 FILLER_0_5_15
*411 FILLER_0_5_161
*412 FILLER_0_5_167
*413 FILLER_0_5_169
*414 FILLER_0_5_181
*415 FILLER_0_5_193
*416 FILLER_0_5_205
*417 FILLER_0_5_217
*418 FILLER_0_5_223
*419 FILLER_0_5_225
*420 FILLER_0_5_237
*421 FILLER_0_5_249
*422 FILLER_0_5_27
*423 FILLER_0_5_3
*424 FILLER_0_5_39
*425 FILLER_0_5_51
*426 FILLER_0_5_55
*427 FILLER_0_5_57
*428 FILLER_0_5_69
*429 FILLER_0_5_81
*430 FILLER_0_5_93
*431 FILLER_0_6_109
*432 FILLER_0_6_121
*433 FILLER_0_6_133
*434 FILLER_0_6_139
*435 FILLER_0_6_141
*436 FILLER_0_6_15
*437 FILLER_0_6_153
*438 FILLER_0_6_165
*439 FILLER_0_6_177
*440 FILLER_0_6_189
*441 FILLER_0_6_195
*442 FILLER_0_6_197
*443 FILLER_0_6_209
*444 FILLER_0_6_221
*445 FILLER_0_6_233
*446 FILLER_0_6_245
*447 FILLER_0_6_253
*448 FILLER_0_6_27
*449 FILLER_0_6_29
*450 FILLER_0_6_3
*451 FILLER_0_6_41
*452 FILLER_0_6_53
*453 FILLER_0_6_65
*454 FILLER_0_6_77
*455 FILLER_0_6_83
*456 FILLER_0_6_85
*457 FILLER_0_6_97
*458 FILLER_0_7_106
*459 FILLER_0_7_111
*460 FILLER_0_7_113
*461 FILLER_0_7_117
*462 FILLER_0_7_121
*463 FILLER_0_7_126
*464 FILLER_0_7_137
*465 FILLER_0_7_145
*466 FILLER_0_7_15
*467 FILLER_0_7_152
*468 FILLER_0_7_160
*469 FILLER_0_7_164
*470 FILLER_0_7_169
*471 FILLER_0_7_173
*472 FILLER_0_7_177
*473 FILLER_0_7_185
*474 FILLER_0_7_191
*475 FILLER_0_7_203
*476 FILLER_0_7_208
*477 FILLER_0_7_220
*478 FILLER_0_7_225
*479 FILLER_0_7_237
*480 FILLER_0_7_249
*481 FILLER_0_7_253
*482 FILLER_0_7_27
*483 FILLER_0_7_3
*484 FILLER_0_7_39
*485 FILLER_0_7_51
*486 FILLER_0_7_55
*487 FILLER_0_7_60
*488 FILLER_0_7_64
*489 FILLER_0_7_68
*490 FILLER_0_7_73
*491 FILLER_0_7_81
*492 FILLER_0_7_86
*493 FILLER_0_7_94
*494 FILLER_0_7_98
*495 FILLER_0_8_104
*496 FILLER_0_8_109
*497 FILLER_0_8_115
*498 FILLER_0_8_119
*499 FILLER_0_8_124
*500 FILLER_0_8_135
*501 FILLER_0_8_139
*502 FILLER_0_8_141
*503 FILLER_0_8_15
*504 FILLER_0_8_150
*505 FILLER_0_8_158
*506 FILLER_0_8_162
*507 FILLER_0_8_170
*508 FILLER_0_8_175
*509 FILLER_0_8_183
*510 FILLER_0_8_189
*511 FILLER_0_8_195
*512 FILLER_0_8_197
*513 FILLER_0_8_206
*514 FILLER_0_8_218
*515 FILLER_0_8_230
*516 FILLER_0_8_242
*517 FILLER_0_8_253
*518 FILLER_0_8_27
*519 FILLER_0_8_29
*520 FILLER_0_8_3
*521 FILLER_0_8_41
*522 FILLER_0_8_53
*523 FILLER_0_8_57
*524 FILLER_0_8_65
*525 FILLER_0_8_71
*526 FILLER_0_8_79
*527 FILLER_0_8_85
*528 FILLER_0_8_96
*529 FILLER_0_9_110
*530 FILLER_0_9_113
*531 FILLER_0_9_126
*532 FILLER_0_9_136
*533 FILLER_0_9_16
*534 FILLER_0_9_162
*535 FILLER_0_9_178
*536 FILLER_0_9_188
*537 FILLER_0_9_206
*538 FILLER_0_9_217
*539 FILLER_0_9_228
*540 FILLER_0_9_240
*541 FILLER_0_9_253
*542 FILLER_0_9_35
*543 FILLER_0_9_42
*544 FILLER_0_9_48
*545 FILLER_0_9_55
*546 FILLER_0_9_60
*547 FILLER_0_9_71
*548 FILLER_0_9_85
*549 FILLER_0_9_9
*550 FILLER_0_9_97
*551 Inst_N_term_RAM_IO_switch_matrix\._00_
*552 Inst_N_term_RAM_IO_switch_matrix\._01_
*553 Inst_N_term_RAM_IO_switch_matrix\._02_
*554 Inst_N_term_RAM_IO_switch_matrix\._03_
*555 Inst_N_term_RAM_IO_switch_matrix\._04_
*556 Inst_N_term_RAM_IO_switch_matrix\._05_
*557 Inst_N_term_RAM_IO_switch_matrix\._06_
*558 Inst_N_term_RAM_IO_switch_matrix\._07_
*559 Inst_N_term_RAM_IO_switch_matrix\._08_
*560 Inst_N_term_RAM_IO_switch_matrix\._09_
*561 Inst_N_term_RAM_IO_switch_matrix\._10_
*562 Inst_N_term_RAM_IO_switch_matrix\._11_
*563 Inst_N_term_RAM_IO_switch_matrix\._12_
*564 Inst_N_term_RAM_IO_switch_matrix\._13_
*565 Inst_N_term_RAM_IO_switch_matrix\._14_
*566 Inst_N_term_RAM_IO_switch_matrix\._15_
*567 Inst_N_term_RAM_IO_switch_matrix\._16_
*568 Inst_N_term_RAM_IO_switch_matrix\._17_
*569 Inst_N_term_RAM_IO_switch_matrix\._18_
*570 Inst_N_term_RAM_IO_switch_matrix\._19_
*571 Inst_N_term_RAM_IO_switch_matrix\._20_
*572 Inst_N_term_RAM_IO_switch_matrix\._21_
*573 Inst_N_term_RAM_IO_switch_matrix\._22_
*574 Inst_N_term_RAM_IO_switch_matrix\._23_
*575 Inst_N_term_RAM_IO_switch_matrix\._24_
*576 Inst_N_term_RAM_IO_switch_matrix\._25_
*577 Inst_N_term_RAM_IO_switch_matrix\._26_
*578 Inst_N_term_RAM_IO_switch_matrix\._27_
*579 Inst_N_term_RAM_IO_switch_matrix\._28_
*580 Inst_N_term_RAM_IO_switch_matrix\._29_
*581 Inst_N_term_RAM_IO_switch_matrix\._30_
*582 Inst_N_term_RAM_IO_switch_matrix\._31_
*583 Inst_N_term_RAM_IO_switch_matrix\._32_
*584 Inst_N_term_RAM_IO_switch_matrix\._33_
*585 Inst_N_term_RAM_IO_switch_matrix\._34_
*586 Inst_N_term_RAM_IO_switch_matrix\._35_
*587 PHY_0
*588 PHY_1
*589 PHY_10
*590 PHY_11
*591 PHY_12
*592 PHY_13
*593 PHY_14
*594 PHY_15
*595 PHY_16
*596 PHY_17
*597 PHY_18
*598 PHY_19
*599 PHY_2
*600 PHY_3
*601 PHY_4
*602 PHY_5
*603 PHY_6
*604 PHY_7
*605 PHY_8
*606 PHY_9
*607 TAP_20
*608 TAP_21
*609 TAP_22
*610 TAP_23
*611 TAP_24
*612 TAP_25
*613 TAP_26
*614 TAP_27
*615 TAP_28
*616 TAP_29
*617 TAP_30
*618 TAP_31
*619 TAP_32
*620 TAP_33
*621 TAP_34
*622 TAP_35
*623 TAP_36
*624 TAP_37
*625 TAP_38
*626 TAP_39
*627 TAP_40
*628 TAP_41
*629 TAP_42
*630 TAP_43
*631 TAP_44
*632 TAP_45
*633 TAP_46
*634 TAP_47
*635 TAP_48
*636 TAP_49
*637 TAP_50
*638 TAP_51
*639 TAP_52
*640 TAP_53
*641 TAP_54
*642 TAP_55
*643 TAP_56
*644 TAP_57
*645 TAP_58
*646 TAP_59
*647 TAP_60
*648 TAP_61
*649 TAP_62
*650 TAP_63
*651 TAP_64
*652 TAP_65
*653 TAP_66
*654 TAP_67
*655 TAP_68
*656 TAP_69
*657 TAP_70
*658 TAP_71
*659 TAP_72
*660 TAP_73
*661 _00_
*662 _01_
*663 _02_
*664 _03_
*665 _04_
*666 _05_
*667 _06_
*668 _07_
*669 _08_
*670 _09_
*671 _10_
*672 _11_
*673 _12_
*674 _13_
*675 _14_
*676 _15_
*677 _16_
*678 _17_
*679 _18_
*680 _19_
*681 _20_
*682 _21_
*683 _22_
*684 _23_
*685 _24_
*686 _25_
*687 _26_
*688 _27_
*689 _28_
*690 _29_
*691 _30_
*692 _31_
*693 _32_
*694 _33_
*695 _34_
*696 _35_
*697 _36_
*698 _37_
*699 _38_
*700 _39_
*701 _40_
*702 _41_
*703 _42_
*704 _43_
*705 _44_
*706 _45_
*707 _46_
*708 _47_
*709 _48_
*710 _49_
*711 _50_
*712 _51_
*713 _52_
*714 _53_
*715 _54_
*716 _55_
*717 input1
*718 input10
*719 input11
*720 input12
*721 input13
*722 input14
*723 input15
*724 input16
*725 input17
*726 input18
*727 input19
*728 input2
*729 input20
*730 input21
*731 input22
*732 input23
*733 input24
*734 input25
*735 input26
*736 input27
*737 input28
*738 input29
*739 input3
*740 input30
*741 input31
*742 input32
*743 input33
*744 input34
*745 input35
*746 input36
*747 input37
*748 input38
*749 input39
*750 input4
*751 input40
*752 input41
*753 input42
*754 input43
*755 input44
*756 input45
*757 input46
*758 input47
*759 input48
*760 input49
*761 input5
*762 input50
*763 input51
*764 input52
*765 input53
*766 input54
*767 input55
*768 input56
*769 input57
*770 input6
*771 input7
*772 input8
*773 input9
*774 inst_clk_buf
*775 output100
*776 output101
*777 output102
*778 output103
*779 output104
*780 output105
*781 output106
*782 output107
*783 output108
*784 output109
*785 output110
*786 output111
*787 output112
*788 output113
*789 output114
*790 output58
*791 output59
*792 output60
*793 output61
*794 output62
*795 output63
*796 output64
*797 output65
*798 output66
*799 output67
*800 output68
*801 output69
*802 output70
*803 output71
*804 output72
*805 output73
*806 output74
*807 output75
*808 output76
*809 output77
*810 output78
*811 output79
*812 output80
*813 output81
*814 output82
*815 output83
*816 output84
*817 output85
*818 output86
*819 output87
*820 output88
*821 output89
*822 output90
*823 output91
*824 output92
*825 output93
*826 output94
*827 output95
*828 output96
*829 output97
*830 output98
*831 output99
*832 strobe_inbuf_0\._0_
*833 strobe_inbuf_1\._0_
*834 strobe_inbuf_10\._0_
*835 strobe_inbuf_11\._0_
*836 strobe_inbuf_12\._0_
*837 strobe_inbuf_13\._0_
*838 strobe_inbuf_14\._0_
*839 strobe_inbuf_15\._0_
*840 strobe_inbuf_16\._0_
*841 strobe_inbuf_17\._0_
*842 strobe_inbuf_18\._0_
*843 strobe_inbuf_19\._0_
*844 strobe_inbuf_2\._0_
*845 strobe_inbuf_3\._0_
*846 strobe_inbuf_4\._0_
*847 strobe_inbuf_5\._0_
*848 strobe_inbuf_6\._0_
*849 strobe_inbuf_7\._0_
*850 strobe_inbuf_8\._0_
*851 strobe_inbuf_9\._0_
*852 strobe_outbuf_0\._0_
*853 strobe_outbuf_1\._0_
*854 strobe_outbuf_10\._0_
*855 strobe_outbuf_11\._0_
*856 strobe_outbuf_12\._0_
*857 strobe_outbuf_13\._0_
*858 strobe_outbuf_14\._0_
*859 strobe_outbuf_15\._0_
*860 strobe_outbuf_16\._0_
*861 strobe_outbuf_17\._0_
*862 strobe_outbuf_18\._0_
*863 strobe_outbuf_19\._0_
*864 strobe_outbuf_2\._0_
*865 strobe_outbuf_3\._0_
*866 strobe_outbuf_4\._0_
*867 strobe_outbuf_5\._0_
*868 strobe_outbuf_6\._0_
*869 strobe_outbuf_7\._0_
*870 strobe_outbuf_8\._0_
*871 strobe_outbuf_9\._0_

*PORTS
FrameStrobe[0] I
FrameStrobe[10] I
FrameStrobe[11] I
FrameStrobe[12] I
FrameStrobe[13] I
FrameStrobe[14] I
FrameStrobe[15] I
FrameStrobe[16] I
FrameStrobe[17] I
FrameStrobe[18] I
FrameStrobe[19] I
FrameStrobe[1] I
FrameStrobe[2] I
FrameStrobe[3] I
FrameStrobe[4] I
FrameStrobe[5] I
FrameStrobe[6] I
FrameStrobe[7] I
FrameStrobe[8] I
FrameStrobe[9] I
FrameStrobe_O[0] O
FrameStrobe_O[10] O
FrameStrobe_O[11] O
FrameStrobe_O[12] O
FrameStrobe_O[13] O
FrameStrobe_O[14] O
FrameStrobe_O[15] O
FrameStrobe_O[16] O
FrameStrobe_O[17] O
FrameStrobe_O[18] O
FrameStrobe_O[19] O
FrameStrobe_O[1] O
FrameStrobe_O[2] O
FrameStrobe_O[3] O
FrameStrobe_O[4] O
FrameStrobe_O[5] O
FrameStrobe_O[6] O
FrameStrobe_O[7] O
FrameStrobe_O[8] O
FrameStrobe_O[9] O
N1END[0] I
N1END[1] I
N1END[2] I
N1END[3] I
N2END[0] I
N2END[1] I
N2END[2] I
N2END[3] I
N2END[4] I
N2END[5] I
N2END[6] I
N2END[7] I
N2MID[0] I
N2MID[1] I
N2MID[2] I
N2MID[3] I
N2MID[4] I
N2MID[5] I
N2MID[6] I
N2MID[7] I
N4END[0] I
N4END[10] I
N4END[11] I
N4END[12] I
N4END[13] I
N4END[14] I
N4END[15] I
N4END[1] I
N4END[2] I
N4END[3] I
N4END[4] I
N4END[5] I
N4END[6] I
N4END[7] I
N4END[8] I
N4END[9] I
S1BEG[0] O
S1BEG[1] O
S1BEG[2] O
S1BEG[3] O
S2BEG[0] O
S2BEG[1] O
S2BEG[2] O
S2BEG[3] O
S2BEG[4] O
S2BEG[5] O
S2BEG[6] O
S2BEG[7] O
S2BEGb[0] O
S2BEGb[1] O
S2BEGb[2] O
S2BEGb[3] O
S2BEGb[4] O
S2BEGb[5] O
S2BEGb[6] O
S2BEGb[7] O
S4BEG[0] O
S4BEG[10] O
S4BEG[11] O
S4BEG[12] O
S4BEG[13] O
S4BEG[14] O
S4BEG[15] O
S4BEG[1] O
S4BEG[2] O
S4BEG[3] O
S4BEG[4] O
S4BEG[5] O
S4BEG[6] O
S4BEG[7] O
S4BEG[8] O
S4BEG[9] O
UserCLK I
UserCLKo O

*D_NET *1 0.00282204
*CONN
*P FrameStrobe[0] I
*I *717:A I *D sky130_fd_sc_hd__clkbuf_1
*CAP
1 FrameStrobe[0] 0.000610383
2 *717:A 9.67225e-05
3 *1:13 0.000707105
4 *717:A *102:18 1.24376e-05
5 *717:A *153:8 5.41385e-05
6 *717:A *295:8 7.53384e-06
7 *1:13 *586:A 4.13477e-05
8 *1:13 *12:17 0.000118975
9 *1:13 *14:21 9.29113e-05
10 *1:13 *16:15 0
11 *1:13 *113:15 8.21053e-05
12 *1:13 *152:10 0.000111852
13 *1:13 *158:18 6.07611e-06
14 *1:13 *171:16 0.000439375
15 *1:13 *177:24 0.000441076
*RES
1 FrameStrobe[0] *1:13 44.8107 
2 *1:13 *717:A 40.0507 
*END

*D_NET *2 0.00281503
*CONN
*P FrameStrobe[10] I
*I *728:A I *D sky130_fd_sc_hd__buf_1
*CAP
1 FrameStrobe[10] 0.000606219
2 *728:A 0
3 *2:19 0.000606219
4 *2:19 *719:A 0.000396044
5 *2:19 *729:A 9.48561e-05
6 *2:19 *770:A 9.5877e-05
7 *2:19 *861:A 9.75779e-05
8 *2:19 *3:15 9.83771e-05
9 *2:19 *6:17 3.70187e-05
10 *2:19 *15:15 5.00208e-05
11 *2:19 *172:12 9.6289e-05
12 *2:19 *174:8 7.89973e-05
13 *2:19 *175:8 0.00014411
14 *2:19 *180:10 2.32004e-05
15 *2:19 *180:14 4.42688e-05
16 *2:19 *223:10 0.000310647
17 *2:19 *296:8 3.53115e-05
*RES
1 FrameStrobe[10] *2:19 47.7107 
2 *2:19 *728:A 38 
*END

*D_NET *3 0.00268471
*CONN
*P FrameStrobe[11] I
*I *739:A I *D sky130_fd_sc_hd__buf_1
*CAP
1 FrameStrobe[11] 0.00065359
2 *739:A 0
3 *3:15 0.00065359
4 *3:15 *719:A 0.000469257
5 *3:15 *858:A 0.000108944
6 *3:15 *859:A 0.00010005
7 *3:15 *4:11 8.81384e-05
8 *3:15 *10:25 8.62783e-05
9 *3:15 *18:19 0
10 *3:15 *177:14 0.000101705
11 *3:15 *223:10 9.5877e-05
12 *3:15 *245:14 7.24081e-05
13 *3:15 *293:12 7.43025e-06
14 *3:15 *294:14 0.000149066
15 *2:19 *3:15 9.83771e-05
*RES
1 FrameStrobe[11] *3:15 31.0329 
2 *3:15 *739:A 23 
*END

*D_NET *4 0.00214945
*CONN
*P FrameStrobe[12] I
*I *750:A I *D sky130_fd_sc_hd__clkbuf_1
*CAP
1 FrameStrobe[12] 0.000619316
2 *750:A 0
3 *4:11 0.000619316
4 *4:11 *5:21 0.000234095
5 *4:11 *10:13 6.4393e-05
6 *4:11 *18:19 0.000118014
7 *4:11 *19:17 7.46108e-05
8 *4:11 *176:8 3.34818e-06
9 *4:11 *177:14 7.39611e-05
10 *4:11 *234:10 1.14452e-05
11 *4:11 *245:14 7.35491e-05
12 *4:11 *274:8 8.85189e-05
13 *4:11 *293:12 8.07423e-05
14 *3:15 *4:11 8.81384e-05
*RES
1 FrameStrobe[12] *4:11 28.9407 
2 *4:11 *750:A 23 
*END

*D_NET *5 0.00251372
*CONN
*P FrameStrobe[13] I
*I *761:A I *D sky130_fd_sc_hd__clkbuf_1
*CAP
1 FrameStrobe[13] 0.000745622
2 *761:A 0
3 *5:21 0.000745622
4 *5:21 *839:A 9.75779e-05
5 *5:21 *6:17 4.56967e-05
6 *5:21 *7:11 8.20469e-05
7 *5:21 *19:17 3.84556e-05
8 *5:21 *154:16 6.16283e-05
9 *5:21 *178:10 7.74999e-05
10 *5:21 *293:12 0.000215791
11 *5:21 *294:14 0.000169683
12 *4:11 *5:21 0.000234095
*RES
1 FrameStrobe[13] *5:21 32.5243 
2 *5:21 *761:A 23 
*END

*D_NET *6 0.00298455
*CONN
*P FrameStrobe[14] I
*I *770:A I *D sky130_fd_sc_hd__clkbuf_1
*CAP
1 FrameStrobe[14] 0.000932966
2 *770:A 5.86438e-05
3 *6:17 0.00099161
4 *6:17 *729:A 0
5 *6:17 *7:11 4.56967e-05
6 *6:17 *11:11 0
7 *6:17 *16:15 0
8 *6:17 *18:19 0.000159257
9 *6:17 *19:17 0.00019471
10 *6:17 *171:8 3.06079e-05
11 *6:17 *172:12 0.000232547
12 *6:17 *173:18 3.34818e-06
13 *6:17 *177:24 0.000156572
14 *6:17 *275:14 0
15 *2:19 *770:A 9.5877e-05
16 *2:19 *6:17 3.70187e-05
17 *5:21 *6:17 4.56967e-05
*RES
1 FrameStrobe[14] *6:17 49.3886 
2 *6:17 *770:A 39.0979 
*END

*D_NET *7 0.00307709
*CONN
*P FrameStrobe[15] I
*I *771:A I *D sky130_fd_sc_hd__clkbuf_1
*CAP
1 FrameStrobe[15] 0.000520643
2 *771:A 0
3 *7:11 0.000520643
4 *7:11 *8:13 0.00135764
5 *7:11 *9:11 0.000110524
6 *7:11 *178:10 4.08537e-05
7 *7:11 *190:10 0.000354769
8 *7:11 *294:14 4.42688e-05
9 *5:21 *7:11 8.20469e-05
10 *6:17 *7:11 4.56967e-05
*RES
1 FrameStrobe[15] *7:11 33.0629 
2 *7:11 *771:A 23 
*END

*D_NET *8 0.00318138
*CONN
*P FrameStrobe[16] I
*I *772:A I *D sky130_fd_sc_hd__clkbuf_1
*CAP
1 FrameStrobe[16] 0.000829818
2 *772:A 0
3 *8:13 0.000829818
4 *8:13 *9:11 6.5619e-05
5 *8:13 *234:10 9.84794e-05
6 *7:11 *8:13 0.00135764
*RES
1 FrameStrobe[16] *8:13 36.0664 
2 *8:13 *772:A 23 
*END

*D_NET *9 0.00280376
*CONN
*P FrameStrobe[17] I
*I *773:A I *D sky130_fd_sc_hd__clkbuf_1
*CAP
1 FrameStrobe[17] 0.00120384
2 *773:A 0
3 *9:11 0.00120384
4 *9:11 *10:13 0.000206005
5 *9:11 *190:10 0
6 *9:11 *245:14 1.39317e-05
7 *7:11 *9:11 0.000110524
8 *8:13 *9:11 6.5619e-05
*RES
1 FrameStrobe[17] *9:11 39.4843 
2 *9:11 *773:A 23 
*END

*D_NET *10 0.00314138
*CONN
*P FrameStrobe[18] I
*I *718:A I *D sky130_fd_sc_hd__clkbuf_1
*CAP
1 FrameStrobe[18] 0.000846795
2 *718:A 0
3 *10:25 0.000216532
4 *10:13 0.00106333
5 *10:13 *11:11 0.000107129
6 *10:13 *18:19 2.64616e-05
7 *10:13 *177:14 8.06804e-06
8 *10:13 *178:10 1.05235e-05
9 *10:13 *245:14 0.000107092
10 *10:25 *719:A 9.11901e-05
11 *10:25 *858:A 0.000137651
12 *10:25 *245:14 0.00011663
13 *10:25 *293:12 5.3304e-05
14 *3:15 *10:25 8.62783e-05
15 *4:11 *10:13 6.4393e-05
16 *9:11 *10:13 0.000206005
*RES
1 FrameStrobe[18] *10:13 47.4414 
2 *10:13 *10:25 35.655 
3 *10:25 *718:A 38 
*END

*D_NET *11 0.00403095
*CONN
*P FrameStrobe[19] I
*I *719:A I *D sky130_fd_sc_hd__clkbuf_1
*CAP
1 FrameStrobe[19] 0.000715644
2 *719:A 0.00042087
3 *11:11 0.00113651
4 *719:A *212:14 9.67842e-05
5 *719:A *276:10 0
6 *719:A *296:12 6.79006e-05
7 *11:11 *177:24 5.2894e-05
8 *11:11 *178:16 0.000476726
9 *2:19 *719:A 0.000396044
10 *3:15 *719:A 0.000469257
11 *6:17 *11:11 0
12 *10:13 *11:11 0.000107129
13 *10:25 *719:A 9.11901e-05
*RES
1 FrameStrobe[19] *11:11 45.8257 
2 *11:11 *719:A 47.6943 
*END

*D_NET *12 0.00246111
*CONN
*P FrameStrobe[1] I
*I *720:A I *D sky130_fd_sc_hd__buf_1
*CAP
1 FrameStrobe[1] 0.000921973
2 *720:A 0
3 *12:17 0.000921973
4 *12:17 S4BEG[14] 0
5 *12:17 *578:A 0.000144494
6 *12:17 *586:A 3.86588e-05
7 *12:17 *721:A 0.000137339
8 *12:17 *779:A 0.000128401
9 *12:17 *13:15 0
10 *12:17 *14:21 3.16951e-05
11 *12:17 *103:8 5.14746e-06
12 *12:17 *113:15 0
13 *12:17 *152:10 1.24572e-05
14 *1:13 *12:17 0.000118975
*RES
1 FrameStrobe[1] *12:17 30.8879 
2 *12:17 *720:A 23 
*END

*D_NET *13 0.00261781
*CONN
*P FrameStrobe[2] I
*I *721:A I *D sky130_fd_sc_hd__buf_1
*CAP
1 FrameStrobe[2] 0.000500603
2 *721:A 0.000180384
3 *13:15 0.000680987
4 *721:A *14:21 0.000113086
5 *721:A *172:8 0
6 *13:15 *14:21 0
7 *13:15 *16:15 0.000161121
8 *13:15 *17:19 1.77554e-05
9 *13:15 *171:16 0.000394994
10 *13:15 *174:16 4.08641e-05
11 *13:15 *178:16 0.000390679
12 *12:17 *721:A 0.000137339
13 *12:17 *13:15 0
*RES
1 FrameStrobe[2] *13:15 41.5586 
2 *13:15 *721:A 41.5214 
*END

*D_NET *14 0.00284956
*CONN
*P FrameStrobe[3] I
*I *722:A I *D sky130_fd_sc_hd__buf_1
*CAP
1 FrameStrobe[3] 0.000738905
2 *722:A 0
3 *14:21 0.000738905
4 *14:21 *578:A 0.000142173
5 *14:21 *586:A 0.00014414
6 *14:21 *15:15 0.000235672
7 *14:21 *16:15 0.000277666
8 *14:21 *17:19 0.000312562
9 *14:21 *172:8 1.09903e-05
10 *14:21 *173:18 1.08529e-05
11 *721:A *14:21 0.000113086
12 *1:13 *14:21 9.29113e-05
13 *12:17 *14:21 3.16951e-05
14 *13:15 *14:21 0
*RES
1 FrameStrobe[3] *14:21 31.6336 
2 *14:21 *722:A 23 
*END

*D_NET *15 0.00268349
*CONN
*P FrameStrobe[4] I
*I *723:A I *D sky130_fd_sc_hd__buf_1
*CAP
1 FrameStrobe[4] 0.000451419
2 *723:A 0
3 *15:15 0.000451419
4 *15:15 *729:A 0.000206486
5 *15:15 *16:15 0.000118975
6 *15:15 *171:14 6.18851e-05
7 *15:15 *171:16 0.000286307
8 *15:15 *174:8 3.06297e-05
9 *15:15 *177:18 0
10 *15:15 *177:24 0.000688894
11 *15:15 *178:16 0.00010178
12 *2:19 *15:15 5.00208e-05
13 *14:21 *15:15 0.000235672
*RES
1 FrameStrobe[4] *15:15 44.645 
2 *15:15 *723:A 38 
*END

*D_NET *16 0.00202734
*CONN
*P FrameStrobe[5] I
*I *724:A I *D sky130_fd_sc_hd__buf_1
*CAP
1 FrameStrobe[5] 0.000691446
2 *724:A 0
3 *16:15 0.000691446
4 *16:15 *578:A 2.11066e-05
5 *16:15 *17:19 0
6 *16:15 *18:19 0
7 *16:15 *144:12 7.57281e-06
8 *16:15 *174:16 2.68708e-05
9 *16:15 *180:10 1.03833e-05
10 *16:15 *275:14 0
11 *16:15 *295:8 2.07484e-05
12 *1:13 *16:15 0
13 *6:17 *16:15 0
14 *13:15 *16:15 0.000161121
15 *14:21 *16:15 0.000277666
16 *15:15 *16:15 0.000118975
*RES
1 FrameStrobe[5] *16:15 28.195 
2 *16:15 *724:A 23 
*END

*D_NET *17 0.00296767
*CONN
*P FrameStrobe[6] I
*I *725:A I *D sky130_fd_sc_hd__buf_1
*CAP
1 FrameStrobe[6] 0.000861685
2 *725:A 0
3 *17:19 0.000861685
4 *17:19 *578:A 3.87221e-06
5 *17:19 *840:A 0.000131434
6 *17:19 *18:19 0
7 *17:19 *144:12 9.86551e-06
8 *17:19 *171:8 4.21348e-05
9 *17:19 *173:18 1.39317e-05
10 *17:19 *174:16 0.000185755
11 *17:19 *275:14 0.000526993
12 *13:15 *17:19 1.77554e-05
13 *14:21 *17:19 0.000312562
14 *16:15 *17:19 0
*RES
1 FrameStrobe[6] *17:19 33.1457 
2 *17:19 *725:A 23 
*END

*D_NET *18 0.00293697
*CONN
*P FrameStrobe[7] I
*I *726:A I *D sky130_fd_sc_hd__buf_1
*CAP
1 FrameStrobe[7] 0.000897027
2 *726:A 0
3 *18:19 0.000897027
4 *18:19 *19:17 0.000558219
5 *18:19 *171:8 9.63642e-05
6 *18:19 *173:18 8.69997e-05
7 *18:19 *176:8 2.23469e-05
8 *18:19 *177:14 7.52543e-05
9 *3:15 *18:19 0
10 *4:11 *18:19 0.000118014
11 *6:17 *18:19 0.000159257
12 *10:13 *18:19 2.64616e-05
13 *16:15 *18:19 0
14 *17:19 *18:19 0
*RES
1 FrameStrobe[7] *18:19 40.4049 
2 *18:19 *726:A 23 
*END

*D_NET *19 0.00271637
*CONN
*P FrameStrobe[8] I
*I *727:A I *D sky130_fd_sc_hd__buf_1
*CAP
1 FrameStrobe[8] 0.000716275
2 *727:A 0
3 *19:17 0.000716275
4 *19:17 *729:A 0.000417822
5 *4:11 *19:17 7.46108e-05
6 *5:21 *19:17 3.84556e-05
7 *6:17 *19:17 0.00019471
8 *18:19 *19:17 0.000558219
*RES
1 FrameStrobe[8] *19:17 40.0881 
2 *19:17 *727:A 23 
*END

*D_NET *20 0.00188847
*CONN
*P FrameStrobe[9] I
*I *729:A I *D sky130_fd_sc_hd__buf_1
*CAP
1 FrameStrobe[9] 0.000538061
2 *729:A 0.000538061
3 *729:A *172:12 5.76973e-05
4 *729:A *173:18 2.5343e-05
5 *729:A *276:10 1.01436e-05
6 *2:19 *729:A 9.48561e-05
7 *6:17 *729:A 0
8 *15:15 *729:A 0.000206486
9 *19:17 *729:A 0.000417822
*RES
1 FrameStrobe[9] *729:A 48.8543 
*END

*D_NET *21 0.00105702
*CONN
*P FrameStrobe_O[0] O
*I *790:X O *D sky130_fd_sc_hd__buf_2
*CAP
1 FrameStrobe_O[0] 0.000478422
2 *790:X 0.000478422
3 FrameStrobe_O[0] UserCLKo 0
4 FrameStrobe_O[0] *221:16 0.00010018
*RES
1 *790:X FrameStrobe_O[0] 47.57 
*END

*D_NET *22 0.000837047
*CONN
*P FrameStrobe_O[10] O
*I *791:X O *D sky130_fd_sc_hd__clkbuf_4
*CAP
1 FrameStrobe_O[10] 0.000418523
2 *791:X 0.000418523
*RES
1 *791:X FrameStrobe_O[10] 47.0936 
*END

*D_NET *23 0.000795308
*CONN
*P FrameStrobe_O[11] O
*I *792:X O *D sky130_fd_sc_hd__clkbuf_4
*CAP
1 FrameStrobe_O[11] 0.000397654
2 *792:X 0.000397654
*RES
1 *792:X FrameStrobe_O[11] 46.6171 
*END

*D_NET *24 0.000920525
*CONN
*P FrameStrobe_O[12] O
*I *793:X O *D sky130_fd_sc_hd__clkbuf_4
*CAP
1 FrameStrobe_O[12] 0.000460262
2 *793:X 0.000460262
*RES
1 *793:X FrameStrobe_O[12] 48.0464 
*END

*D_NET *25 0.000878786
*CONN
*P FrameStrobe_O[13] O
*I *794:X O *D sky130_fd_sc_hd__clkbuf_4
*CAP
1 FrameStrobe_O[13] 0.000439393
2 *794:X 0.000439393
*RES
1 *794:X FrameStrobe_O[13] 47.57 
*END

*D_NET *26 0.001004
*CONN
*P FrameStrobe_O[14] O
*I *795:X O *D sky130_fd_sc_hd__clkbuf_4
*CAP
1 FrameStrobe_O[14] 0.000502001
2 *795:X 0.000502001
3 FrameStrobe_O[14] FrameStrobe_O[15] 0
*RES
1 *795:X FrameStrobe_O[14] 48.9993 
*END

*D_NET *27 0.000878786
*CONN
*P FrameStrobe_O[15] O
*I *796:X O *D sky130_fd_sc_hd__buf_2
*CAP
1 FrameStrobe_O[15] 0.000439393
2 *796:X 0.000439393
3 FrameStrobe_O[14] FrameStrobe_O[15] 0
*RES
1 *796:X FrameStrobe_O[15] 47.57 
*END

*D_NET *28 0.000878786
*CONN
*P FrameStrobe_O[16] O
*I *797:X O *D sky130_fd_sc_hd__buf_2
*CAP
1 FrameStrobe_O[16] 0.000439393
2 *797:X 0.000439393
*RES
1 *797:X FrameStrobe_O[16] 47.57 
*END

*D_NET *29 0.000795308
*CONN
*P FrameStrobe_O[17] O
*I *798:X O *D sky130_fd_sc_hd__clkbuf_4
*CAP
1 FrameStrobe_O[17] 0.000397654
2 *798:X 0.000397654
*RES
1 *798:X FrameStrobe_O[17] 46.6171 
*END

*D_NET *30 0.000881489
*CONN
*P FrameStrobe_O[18] O
*I *799:X O *D sky130_fd_sc_hd__clkbuf_4
*CAP
1 FrameStrobe_O[18] 0.000440745
2 *799:X 0.000440745
3 FrameStrobe_O[18] FrameStrobe_O[19] 0
*RES
1 *799:X FrameStrobe_O[18] 47.715 
*END

*D_NET *31 0.00157387
*CONN
*P FrameStrobe_O[19] O
*I *800:X O *D sky130_fd_sc_hd__clkbuf_4
*CAP
1 FrameStrobe_O[19] 0.000601446
2 *800:X 0.000168904
3 *31:8 0.000770351