*SPEF "ieee 1481-1999"
*DESIGN "N_term_single"
*DATE "11:11:11 Fri 11 11, 1111"
*VENDOR "OpenRCX"
*PROGRAM "Parallel Extraction"
*VERSION "1.0"
*DESIGN_FLOW "NAME_SCOPE LOCAL" "PIN_CAP NONE"
*DIVIDER /
*DELIMITER :
*BUS_DELIMITER []
*T_UNIT 1 NS
*C_UNIT 1 PF
*R_UNIT 1 OHM
*L_UNIT 1 HENRY

*NAME_MAP
*1 Ci
*2 FrameStrobe[0]
*3 FrameStrobe[10]
*4 FrameStrobe[11]
*5 FrameStrobe[12]
*6 FrameStrobe[13]
*7 FrameStrobe[14]
*8 FrameStrobe[15]
*9 FrameStrobe[16]
*10 FrameStrobe[17]
*11 FrameStrobe[18]
*12 FrameStrobe[19]
*13 FrameStrobe[1]
*14 FrameStrobe[2]
*15 FrameStrobe[3]
*16 FrameStrobe[4]
*17 FrameStrobe[5]
*18 FrameStrobe[6]
*19 FrameStrobe[7]
*20 FrameStrobe[8]
*21 FrameStrobe[9]
*22 FrameStrobe_O[0]
*23 FrameStrobe_O[10]
*24 FrameStrobe_O[11]
*25 FrameStrobe_O[12]
*26 FrameStrobe_O[13]
*27 FrameStrobe_O[14]
*28 FrameStrobe_O[15]
*29 FrameStrobe_O[16]
*30 FrameStrobe_O[17]
*31 FrameStrobe_O[18]
*32 FrameStrobe_O[19]
*33 FrameStrobe_O[1]
*34 FrameStrobe_O[2]
*35 FrameStrobe_O[3]
*36 FrameStrobe_O[4]
*37 FrameStrobe_O[5]
*38 FrameStrobe_O[6]
*39 FrameStrobe_O[7]
*40 FrameStrobe_O[8]
*41 FrameStrobe_O[9]
*42 N1END[0]
*43 N1END[1]
*44 N1END[2]
*45 N1END[3]
*46 N2END[0]
*47 N2END[1]
*48 N2END[2]
*49 N2END[3]
*50 N2END[4]
*51 N2END[5]
*52 N2END[6]
*53 N2END[7]
*54 N2MID[0]
*55 N2MID[1]
*56 N2MID[2]
*57 N2MID[3]
*58 N2MID[4]
*59 N2MID[5]
*60 N2MID[6]
*61 N2MID[7]
*62 N4END[0]
*63 N4END[10]
*64 N4END[11]
*65 N4END[12]
*66 N4END[13]
*67 N4END[14]
*68 N4END[15]
*69 N4END[1]
*70 N4END[2]
*71 N4END[3]
*72 N4END[4]
*73 N4END[5]
*74 N4END[6]
*75 N4END[7]
*76 N4END[8]
*77 N4END[9]
*78 NN4END[0]
*79 NN4END[10]
*80 NN4END[11]
*81 NN4END[12]
*82 NN4END[13]
*83 NN4END[14]
*84 NN4END[15]
*85 NN4END[1]
*86 NN4END[2]
*87 NN4END[3]
*88 NN4END[4]
*89 NN4END[5]
*90 NN4END[6]
*91 NN4END[7]
*92 NN4END[8]
*93 NN4END[9]
*94 S1BEG[0]
*95 S1BEG[1]
*96 S1BEG[2]
*97 S1BEG[3]
*98 S2BEG[0]
*99 S2BEG[1]
*100 S2BEG[2]
*101 S2BEG[3]
*102 S2BEG[4]
*103 S2BEG[5]
*104 S2BEG[6]
*105 S2BEG[7]
*106 S2BEGb[0]
*107 S2BEGb[1]
*108 S2BEGb[2]
*109 S2BEGb[3]
*110 S2BEGb[4]
*111 S2BEGb[5]
*112 S2BEGb[6]
*113 S2BEGb[7]
*114 S4BEG[0]
*115 S4BEG[10]
*116 S4BEG[11]
*117 S4BEG[12]
*118 S4BEG[13]
*119 S4BEG[14]
*120 S4BEG[15]
*121 S4BEG[1]
*122 S4BEG[2]
*123 S4BEG[3]
*124 S4BEG[4]
*125 S4BEG[5]
*126 S4BEG[6]
*127 S4BEG[7]
*128 S4BEG[8]
*129 S4BEG[9]
*130 SS4BEG[0]
*131 SS4BEG[10]
*132 SS4BEG[11]
*133 SS4BEG[12]
*134 SS4BEG[13]
*135 SS4BEG[14]
*136 SS4BEG[15]
*137 SS4BEG[1]
*138 SS4BEG[2]
*139 SS4BEG[3]
*140 SS4BEG[4]
*141 SS4BEG[5]
*142 SS4BEG[6]
*143 SS4BEG[7]
*144 SS4BEG[8]
*145 SS4BEG[9]
*146 UIO_TOP_UIN0
*147 UIO_TOP_UIN1
*148 UIO_TOP_UIN10
*149 UIO_TOP_UIN11
*150 UIO_TOP_UIN12
*151 UIO_TOP_UIN13
*152 UIO_TOP_UIN14
*153 UIO_TOP_UIN15
*154 UIO_TOP_UIN16
*155 UIO_TOP_UIN17
*156 UIO_TOP_UIN18
*157 UIO_TOP_UIN19
*158 UIO_TOP_UIN2
*159 UIO_TOP_UIN3
*160 UIO_TOP_UIN4
*161 UIO_TOP_UIN5
*162 UIO_TOP_UIN6
*163 UIO_TOP_UIN7
*164 UIO_TOP_UIN8
*165 UIO_TOP_UIN9
*166 UIO_TOP_UOUT0
*167 UIO_TOP_UOUT1
*168 UIO_TOP_UOUT10
*169 UIO_TOP_UOUT11
*170 UIO_TOP_UOUT12
*171 UIO_TOP_UOUT13
*172 UIO_TOP_UOUT14
*173 UIO_TOP_UOUT15
*174 UIO_TOP_UOUT16
*175 UIO_TOP_UOUT17
*176 UIO_TOP_UOUT18
*177 UIO_TOP_UOUT19
*178 UIO_TOP_UOUT2
*179 UIO_TOP_UOUT3
*180 UIO_TOP_UOUT4
*181 UIO_TOP_UOUT5
*182 UIO_TOP_UOUT6
*183 UIO_TOP_UOUT7
*184 UIO_TOP_UOUT8
*185 UIO_TOP_UOUT9
*186 UserCLK
*187 UserCLKo
*190 net1
*191 net10
*192 net100
*193 net101
*194 net102
*195 net103
*196 net104
*197 net105
*198 net106
*199 net107
*200 net108
*201 net109
*202 net11
*203 net110
*204 net111
*205 net112
*206 net113
*207 net114
*208 net115
*209 net116
*210 net117
*211 net118
*212 net119
*213 net12
*214 net120
*215 net121
*216 net122
*217 net123
*218 net124
*219 net125
*220 net126
*221 net127
*222 net128
*223 net129
*224 net13
*225 net130
*226 net131
*227 net132
*228 net133
*229 net134
*230 net135
*231 net136
*232 net137
*233 net138
*234 net139
*235 net14
*236 net140
*237 net141
*238 net142
*239 net143
*240 net144
*241 net145
*242 net146
*243 net147
*244 net148
*245 net149
*246 net15
*247 net150
*248 net151
*249 net152
*250 net153
*251 net154
*252 net155
*253 net156
*254 net157
*255 net158
*256 net159
*257 net16
*258 net160
*259 net161
*260 net162
*261 net163
*262 net164
*263 net165
*264 net166
*265 net167
*266 net168
*267 net169
*268 net17
*269 net170
*270 net171
*271 net172
*272 net173
*273 net174
*274 net175
*275 net176
*276 net177
*277 net178
*278 net179
*279 net18
*280 net180
*281 net181
*282 net182
*283 net19
*284 net2
*285 net20
*286 net21
*287 net22
*288 net23
*289 net24
*290 net25
*291 net26
*292 net27
*293 net28
*294 net29
*295 net3
*296 net30
*297 net31
*298 net32
*299 net33
*300 net34
*301 net35
*302 net36
*303 net37
*304 net38
*305 net39
*306 net4
*307 net40
*308 net41
*309 net42
*310 net43
*311 net44
*312 net45
*313 net46
*314 net47
*315 net48
*316 net49
*317 net5
*318 net50
*319 net51
*320 net52
*321 net53
*322 net54
*323 net55
*324 net56
*325 net57
*326 net58
*327 net59
*328 net6
*329 net60
*330 net61
*331 net62
*332 net63
*333 net64
*334 net65
*335 net66
*336 net67
*337 net68
*338 net69
*339 net7
*340 net70
*341 net71
*342 net72
*343 net73
*344 net74
*345 net75
*346 net76
*347 net77
*348 net78
*349 net79
*350 net8
*351 net80
*352 net81
*353 net82
*354 net83
*355 net84
*356 net85
*357 net86
*358 net87
*359 net88
*360 net89
*361 net9
*362 net90
*363 net91
*364 net92
*365 net93
*366 net94
*367 net95
*368 net96
*369 net97
*370 net98
*371 net99
*372 ANTENNA_1
*373 FILLER_0_0_141
*374 FILLER_0_0_15
*375 FILLER_0_0_179
*376 FILLER_0_0_27
*377 FILLER_0_0_29
*378 FILLER_0_0_3
*379 FILLER_0_0_41
*380 FILLER_0_0_436
*381 FILLER_0_0_449
*382 FILLER_0_0_461
*383 FILLER_0_1_102
*384 FILLER_0_1_110
*385 FILLER_0_1_113
*386 FILLER_0_1_125
*387 FILLER_0_1_133
*388 FILLER_0_1_138
*389 FILLER_0_1_147
*390 FILLER_0_1_15
*391 FILLER_0_1_155
*392 FILLER_0_1_169
*393 FILLER_0_1_199
*394 FILLER_0_1_205
*395 FILLER_0_1_27
*396 FILLER_0_1_279
*397 FILLER_0_1_3
*398 FILLER_0_1_335
*399 FILLER_0_1_376
*400 FILLER_0_1_388
*401 FILLER_0_1_39
*402 FILLER_0_1_393
*403 FILLER_0_1_405
*404 FILLER_0_1_414
*405 FILLER_0_1_426
*406 FILLER_0_1_438
*407 FILLER_0_1_446
*408 FILLER_0_1_449
*409 FILLER_0_1_461
*410 FILLER_0_1_51
*411 FILLER_0_1_55
*412 FILLER_0_1_57
*413 FILLER_0_1_69
*414 FILLER_0_1_81
*415 FILLER_0_1_90
*416 FILLER_0_2_109
*417 FILLER_0_2_121
*418 FILLER_0_2_133
*419 FILLER_0_2_139
*420 FILLER_0_2_141
*421 FILLER_0_2_15
*422 FILLER_0_2_153
*423 FILLER_0_2_165
*424 FILLER_0_2_192
*425 FILLER_0_2_212
*426 FILLER_0_2_220
*427 FILLER_0_2_236
*428 FILLER_0_2_250
*429 FILLER_0_2_253
*430 FILLER_0_2_266
*431 FILLER_0_2_27
*432 FILLER_0_2_273
*433 FILLER_0_2_29
*434 FILLER_0_2_3
*435 FILLER_0_2_309
*436 FILLER_0_2_320
*437 FILLER_0_2_343
*438 FILLER_0_2_351
*439 FILLER_0_2_363
*440 FILLER_0_2_365
*441 FILLER_0_2_377
*442 FILLER_0_2_389
*443 FILLER_0_2_401
*444 FILLER_0_2_41
*445 FILLER_0_2_413
*446 FILLER_0_2_419
*447 FILLER_0_2_421
*448 FILLER_0_2_433
*449 FILLER_0_2_445
*450 FILLER_0_2_457
*451 FILLER_0_2_469
*452 FILLER_0_2_53
*453 FILLER_0_2_65
*454 FILLER_0_2_77
*455 FILLER_0_2_83
*456 FILLER_0_2_85
*457 FILLER_0_2_97
*458 FILLER_0_3_105
*459 FILLER_0_3_111
*460 FILLER_0_3_113
*461 FILLER_0_3_125
*462 FILLER_0_3_137
*463 FILLER_0_3_149
*464 FILLER_0_3_15
*465 FILLER_0_3_161
*466 FILLER_0_3_167
*467 FILLER_0_3_169
*468 FILLER_0_3_181
*469 FILLER_0_3_189
*470 FILLER_0_3_198
*471 FILLER_0_3_210
*472 FILLER_0_3_228
*473 FILLER_0_3_240
*474 FILLER_0_3_252
*475 FILLER_0_3_264
*476 FILLER_0_3_27
*477 FILLER_0_3_272
*478 FILLER_0_3_281
*479 FILLER_0_3_293
*480 FILLER_0_3_3
*481 FILLER_0_3_305
*482 FILLER_0_3_317
*483 FILLER_0_3_329
*484 FILLER_0_3_335
*485 FILLER_0_3_337
*486 FILLER_0_3_344
*487 FILLER_0_3_356
*488 FILLER_0_3_368
*489 FILLER_0_3_380
*490 FILLER_0_3_39
*491 FILLER_0_3_393
*492 FILLER_0_3_405
*493 FILLER_0_3_417
*494 FILLER_0_3_429
*495 FILLER_0_3_441
*496 FILLER_0_3_447
*497 FILLER_0_3_449
*498 FILLER_0_3_461
*499 FILLER_0_3_51
*500 FILLER_0_3_55
*501 FILLER_0_3_57
*502 FILLER_0_3_69
*503 FILLER_0_3_81
*504 FILLER_0_3_93
*505 FILLER_0_4_109
*506 FILLER_0_4_121
*507 FILLER_0_4_133
*508 FILLER_0_4_139
*509 FILLER_0_4_141
*510 FILLER_0_4_15
*511 FILLER_0_4_153
*512 FILLER_0_4_165
*513 FILLER_0_4_177
*514 FILLER_0_4_189
*515 FILLER_0_4_195
*516 FILLER_0_4_197
*517 FILLER_0_4_209
*518 FILLER_0_4_221
*519 FILLER_0_4_233
*520 FILLER_0_4_245
*521 FILLER_0_4_251
*522 FILLER_0_4_253
*523 FILLER_0_4_265
*524 FILLER_0_4_27
*525 FILLER_0_4_277
*526 FILLER_0_4_289
*527 FILLER_0_4_29
*528 FILLER_0_4_3
*529 FILLER_0_4_301
*530 FILLER_0_4_307
*531 FILLER_0_4_309
*532 FILLER_0_4_321
*533 FILLER_0_4_333
*534 FILLER_0_4_345
*535 FILLER_0_4_357
*536 FILLER_0_4_363
*537 FILLER_0_4_365
*538 FILLER_0_4_377
*539 FILLER_0_4_389
*540 FILLER_0_4_401
*541 FILLER_0_4_41
*542 FILLER_0_4_413
*543 FILLER_0_4_419
*544 FILLER_0_4_421
*545 FILLER_0_4_433
*546 FILLER_0_4_445
*547 FILLER_0_4_457
*548 FILLER_0_4_469
*549 FILLER_0_4_53
*550 FILLER_0_4_65
*551 FILLER_0_4_77
*552 FILLER_0_4_83
*553 FILLER_0_4_85
*554 FILLER_0_4_97
*555 FILLER_0_5_105
*556 FILLER_0_5_111
*557 FILLER_0_5_113
*558 FILLER_0_5_125
*559 FILLER_0_5_137
*560 FILLER_0_5_149
*561 FILLER_0_5_15
*562 FILLER_0_5_161
*563 FILLER_0_5_167
*564 FILLER_0_5_169
*565 FILLER_0_5_181
*566 FILLER_0_5_193
*567 FILLER_0_5_205
*568 FILLER_0_5_217
*569 FILLER_0_5_223
*570 FILLER_0_5_225
*571 FILLER_0_5_237
*572 FILLER_0_5_249
*573 FILLER_0_5_261
*574 FILLER_0_5_27
*575 FILLER_0_5_273
*576 FILLER_0_5_279
*577 FILLER_0_5_281
*578 FILLER_0_5_293
*579 FILLER_0_5_3
*580 FILLER_0_5_305
*581 FILLER_0_5_317
*582 FILLER_0_5_329
*583 FILLER_0_5_335
*584 FILLER_0_5_337
*585 FILLER_0_5_349
*586 FILLER_0_5_361
*587 FILLER_0_5_373
*588 FILLER_0_5_385
*589 FILLER_0_5_39
*590 FILLER_0_5_391
*591 FILLER_0_5_393
*592 FILLER_0_5_405
*593 FILLER_0_5_417
*594 FILLER_0_5_429
*595 FILLER_0_5_441
*596 FILLER_0_5_447
*597 FILLER_0_5_449
*598 FILLER_0_5_461
*599 FILLER_0_5_51
*600 FILLER_0_5_55
*601 FILLER_0_5_57
*602 FILLER_0_5_69
*603 FILLER_0_5_81
*604 FILLER_0_5_93
*605 FILLER_0_6_109
*606 FILLER_0_6_121
*607 FILLER_0_6_133
*608 FILLER_0_6_139
*609 FILLER_0_6_141
*610 FILLER_0_6_15
*611 FILLER_0_6_153
*612 FILLER_0_6_165
*613 FILLER_0_6_177
*614 FILLER_0_6_189
*615 FILLER_0_6_195
*616 FILLER_0_6_197
*617 FILLER_0_6_209
*618 FILLER_0_6_221
*619 FILLER_0_6_233
*620 FILLER_0_6_245
*621 FILLER_0_6_251
*622 FILLER_0_6_253
*623 FILLER_0_6_265
*624 FILLER_0_6_27
*625 FILLER_0_6_277
*626 FILLER_0_6_289
*627 FILLER_0_6_29
*628 FILLER_0_6_3
*629 FILLER_0_6_301
*630 FILLER_0_6_307
*631 FILLER_0_6_309
*632 FILLER_0_6_321
*633 FILLER_0_6_333
*634 FILLER_0_6_345
*635 FILLER_0_6_357
*636 FILLER_0_6_363
*637 FILLER_0_6_365
*638 FILLER_0_6_377
*639 FILLER_0_6_389
*640 FILLER_0_6_401
*641 FILLER_0_6_41
*642 FILLER_0_6_413
*643 FILLER_0_6_419
*644 FILLER_0_6_421
*645 FILLER_0_6_433
*646 FILLER_0_6_445
*647 FILLER_0_6_457
*648 FILLER_0_6_469
*649 FILLER_0_6_53
*650 FILLER_0_6_65
*651 FILLER_0_6_77
*652 FILLER_0_6_83
*653 FILLER_0_6_85
*654 FILLER_0_6_97
*655 FILLER_0_7_105
*656 FILLER_0_7_111
*657 FILLER_0_7_113
*658 FILLER_0_7_125
*659 FILLER_0_7_137
*660 FILLER_0_7_149
*661 FILLER_0_7_15
*662 FILLER_0_7_161
*663 FILLER_0_7_167
*664 FILLER_0_7_169
*665 FILLER_0_7_181
*666 FILLER_0_7_193
*667 FILLER_0_7_205
*668 FILLER_0_7_217
*669 FILLER_0_7_223
*670 FILLER_0_7_225
*671 FILLER_0_7_237
*672 FILLER_0_7_249
*673 FILLER_0_7_261
*674 FILLER_0_7_27
*675 FILLER_0_7_273
*676 FILLER_0_7_279
*677 FILLER_0_7_281
*678 FILLER_0_7_293
*679 FILLER_0_7_3
*680 FILLER_0_7_305
*681 FILLER_0_7_317
*682 FILLER_0_7_329
*683 FILLER_0_7_335
*684 FILLER_0_7_337
*685 FILLER_0_7_349
*686 FILLER_0_7_361
*687 FILLER_0_7_373
*688 FILLER_0_7_385
*689 FILLER_0_7_39
*690 FILLER_0_7_391
*691 FILLER_0_7_393
*692 FILLER_0_7_405
*693 FILLER_0_7_417
*694 FILLER_0_7_429
*695 FILLER_0_7_441
*696 FILLER_0_7_447
*697 FILLER_0_7_449
*698 FILLER_0_7_461
*699 FILLER_0_7_51
*700 FILLER_0_7_55
*701 FILLER_0_7_57
*702 FILLER_0_7_69
*703 FILLER_0_7_81
*704 FILLER_0_7_93
*705 FILLER_0_8_109
*706 FILLER_0_8_121
*707 FILLER_0_8_133
*708 FILLER_0_8_139
*709 FILLER_0_8_141
*710 FILLER_0_8_153
*711 FILLER_0_8_165
*712 FILLER_0_8_177
*713 FILLER_0_8_189
*714 FILLER_0_8_195
*715 FILLER_0_8_197
*716 FILLER_0_8_209
*717 FILLER_0_8_21
*718 FILLER_0_8_221
*719 FILLER_0_8_233
*720 FILLER_0_8_245
*721 FILLER_0_8_251
*722 FILLER_0_8_253
*723 FILLER_0_8_265
*724 FILLER_0_8_27
*725 FILLER_0_8_277
*726 FILLER_0_8_289
*727 FILLER_0_8_29
*728 FILLER_0_8_301
*729 FILLER_0_8_307
*730 FILLER_0_8_309
*731 FILLER_0_8_321
*732 FILLER_0_8_333
*733 FILLER_0_8_345
*734 FILLER_0_8_353
*735 FILLER_0_8_358
*736 FILLER_0_8_368
*737 FILLER_0_8_374
*738 FILLER_0_8_382
*739 FILLER_0_8_386
*740 FILLER_0_8_390
*741 FILLER_0_8_394
*742 FILLER_0_8_398
*743 FILLER_0_8_402
*744 FILLER_0_8_406
*745 FILLER_0_8_41
*746 FILLER_0_8_410
*747 FILLER_0_8_418
*748 FILLER_0_8_421
*749 FILLER_0_8_433
*750 FILLER_0_8_445
*751 FILLER_0_8_457
*752 FILLER_0_8_53
*753 FILLER_0_8_65
*754 FILLER_0_8_77
*755 FILLER_0_8_83
*756 FILLER_0_8_85
*757 FILLER_0_8_9
*758 FILLER_0_8_97
*759 FILLER_0_9_113
*760 FILLER_0_9_117
*761 FILLER_0_9_12
*762 FILLER_0_9_124
*763 FILLER_0_9_132
*764 FILLER_0_9_141
*765 FILLER_0_9_148
*766 FILLER_0_9_156
*767 FILLER_0_9_164
*768 FILLER_0_9_172
*769 FILLER_0_9_177
*770 FILLER_0_9_181
*771 FILLER_0_9_185
*772 FILLER_0_9_189
*773 FILLER_0_9_193
*774 FILLER_0_9_197
*775 FILLER_0_9_20
*776 FILLER_0_9_204
*777 FILLER_0_9_212
*778 FILLER_0_9_217
*779 FILLER_0_9_223
*780 FILLER_0_9_228
*781 FILLER_0_9_236
*782 FILLER_0_9_244
*783 FILLER_0_9_249
*784 FILLER_0_9_253
*785 FILLER_0_9_260
*786 FILLER_0_9_269
*787 FILLER_0_9_276
*788 FILLER_0_9_284
*789 FILLER_0_9_289
*790 FILLER_0_9_29
*791 FILLER_0_9_293
*792 FILLER_0_9_3
*793 FILLER_0_9_300
*794 FILLER_0_9_305
*795 FILLER_0_9_309
*796 FILLER_0_9_313
*797 FILLER_0_9_317
*798 FILLER_0_9_321
*799 FILLER_0_9_325
*800 FILLER_0_9_332
*801 FILLER_0_9_349
*802 FILLER_0_9_356
*803 FILLER_0_9_36
*804 FILLER_0_9_365
*805 FILLER_0_9_372
*806 FILLER_0_9_380
*807 FILLER_0_9_391
*808 FILLER_0_9_405
*809 FILLER_0_9_412
*810 FILLER_0_9_421
*811 FILLER_0_9_428
*812 FILLER_0_9_436
*813 FILLER_0_9_444
*814 FILLER_0_9_461
*815 FILLER_0_9_468
*816 FILLER_0_9_472
*817 FILLER_0_9_57
*818 FILLER_0_9_72
*819 FILLER_0_9_76
*820 FILLER_0_9_85
*821 FILLER_0_9_92
*822 PHY_0
*823 PHY_1
*824 PHY_10
*825 PHY_11
*826 PHY_12
*827 PHY_13
*828 PHY_14
*829 PHY_15
*830 PHY_16
*831 PHY_17
*832 PHY_18
*833 PHY_19
*834 PHY_2
*835 PHY_3
*836 PHY_4
*837 PHY_5
*838 PHY_6
*839 PHY_7
*840 PHY_8
*841 PHY_9
*842 TAP_100
*843 TAP_101
*844 TAP_102
*845 TAP_103
*846 TAP_104
*847 TAP_105
*848 TAP_106
*849 TAP_107
*850 TAP_108
*851 TAP_109
*852 TAP_110
*853 TAP_111
*854 TAP_112
*855 TAP_113
*856 TAP_114
*857 TAP_115
*858 TAP_20
*859 TAP_21
*860 TAP_22
*861 TAP_23
*862 TAP_24
*863 TAP_25
*864 TAP_26
*865 TAP_27
*866 TAP_28
*867 TAP_29
*868 TAP_30
*869 TAP_31
*870 TAP_32
*871 TAP_33
*872 TAP_34
*873 TAP_35
*874 TAP_36
*875 TAP_37
*876 TAP_38
*877 TAP_39
*878 TAP_40
*879 TAP_41
*880 TAP_42
*881 TAP_43
*882 TAP_44
*883 TAP_45
*884 TAP_46
*885 TAP_47
*886 TAP_48
*887 TAP_49
*888 TAP_50
*889 TAP_51
*890 TAP_52
*891 TAP_53
*892 TAP_54
*893 TAP_55
*894 TAP_56
*895 TAP_57
*896 TAP_58
*897 TAP_59
*898 TAP_60
*899 TAP_61
*900 TAP_62
*901 TAP_63
*902 TAP_64
*903 TAP_65
*904 TAP_66
*905 TAP_67
*906 TAP_68
*907 TAP_69
*908 TAP_70
*909 TAP_71
*910 TAP_72
*911 TAP_73
*912 TAP_74
*913 TAP_75
*914 TAP_76
*915 TAP_77
*916 TAP_78
*917 TAP_79
*918 TAP_80
*919 TAP_81
*920 TAP_82
*921 TAP_83
*922 TAP_84
*923 TAP_85
*924 TAP_86
*925 TAP_87
*926 TAP_88
*927 TAP_89
*928 TAP_90
*929 TAP_91
*930 TAP_92
*931 TAP_93
*932 TAP_94
*933 TAP_95
*934 TAP_96
*935 TAP_97
*936 TAP_98
*937 TAP_99
*938 _00_
*939 _01_
*940 _02_
*941 _03_
*942 _04_
*943 _05_
*944 _06_
*945 _07_
*946 _08_
*947 _09_
*948 _10_
*949 _11_
*950 _12_
*951 _13_
*952 _14_
*953 _15_
*954 _16_
*955 _17_
*956 _18_
*957 _19_
*958 _20_
*959 _21_
*960 _22_
*961 _23_
*962 _24_
*963 _25_
*964 _26_
*965 _27_
*966 _28_
*967 _29_
*968 _30_
*969 _31_
*970 _32_
*971 _33_
*972 _34_
*973 _35_
*974 _36_
*975 _37_
*976 _38_
*977 _39_
*978 _40_
*979 _41_
*980 _42_
*981 _43_
*982 _44_
*983 _45_
*984 _46_
*985 _47_
*986 _48_
*987 _49_
*988 _50_
*989 _51_
*990 _52_
*991 _53_
*992 _54_
*993 _55_
*994 _56_
*995 _57_
*996 _58_
*997 _59_
*998 _60_
*999 _61_
*1000 _62_
*1001 _63_
*1002 _64_
*1003 _65_
*1004 _66_
*1005 _67_
*1006 _68_
*1007 _69_
*1008 _70_
*1009 _71_
*1010 _72_
*1011 _73_
*1012 _74_
*1013 _75_
*1014 _76_
*1015 _77_
*1016 _78_
*1017 _79_
*1018 _80_
*1019 _81_
*1020 _82_
*1021 _83_
*1022 _84_
*1023 _85_
*1024 _86_
*1025 _87_
*1026 _88_
*1027 _89_
*1028 _90_
*1029 _91_
*1030 _92_
*1031 input1
*1032 input10
*1033 input11
*1034 input12
*1035 input13
*1036 input14
*1037 input15
*1038 input16
*1039 input17
*1040 input18
*1041 input19
*1042 input2
*1043 input20
*1044 input21
*1045 input22
*1046 input23
*1047 input24
*1048 input25
*1049 input26
*1050 input27
*1051 input28
*1052 input29
*1053 input3
*1054 input30
*1055 input31
*1056 input32
*1057 input33
*1058 input34
*1059 input35
*1060 input36
*1061 input37
*1062 input38
*1063 input39
*1064 input4
*1065 input40
*1066 input41
*1067 input42
*1068 input43
*1069 input44
*1070 input45
*1071 input46
*1072 input47
*1073 input48
*1074 input49
*1075 input5
*1076 input50
*1077 input51
*1078 input52
*1079 input53
*1080 input54
*1081 input55
*1082 input56
*1083 input57
*1084 input58
*1085 input59
*1086 input6
*1087 input60
*1088 input61
*1089 input62
*1090 input63
*1091 input64
*1092 input65
*1093 input66
*1094 input67
*1095 input68
*1096 input69
*1097 input7
*1098 input70
*1099 input71
*1100 input72
*1101 input73
*1102 input74
*1103 input75
*1104 input76
*1105 input77
*1106 input78
*1107 input79
*1108 input8
*1109 input80
*1110 input81
*1111 input82
*1112 input83
*1113 input84
*1114 input85
*1115 input86
*1116 input87
*1117 input88
*1118 input89
*1119 input9
*1120 output100
*1121 output101
*1122 output102
*1123 output103
*1124 output104
*1125 output105
*1126 output106
*1127 output107
*1128 output108
*1129 output109
*1130 output110
*1131 output111
*1132 output112
*1133 output113
*1134 output114
*1135 output115
*1136 output116
*1137 output117
*1138 output118
*1139 output119
*1140 output120
*1141 output121
*1142 output122
*1143 output123
*1144 output124
*1145 output125
*1146 output126
*1147 output127
*1148 output128
*1149 output129
*1150 output130
*1151 output131
*1152 output132
*1153 output133
*1154 output134
*1155 output135
*1156 output136
*1157 output137
*1158 output138
*1159 output139
*1160 output140
*1161 output141
*1162 output142
*1163 output143
*1164 output144
*1165 output145
*1166 output146
*1167 output147
*1168 output148
*1169 output149
*1170 output150
*1171 output151
*1172 output152
*1173 output153
*1174 output154
*1175 output155
*1176 output156
*1177 output157
*1178 output158
*1179 output159
*1180 output160
*1181 output161
*1182 output162
*1183 output163
*1184 output164
*1185 output165
*1186 output166
*1187 output167
*1188 output168
*1189 output169
*1190 output170
*1191 output171
*1192 output172
*1193 output173
*1194 output174
*1195 output175
*1196 output176
*1197 output177
*1198 output178
*1199 output179
*1200 output180
*1201 output181
*1202 output182
*1203 output90
*1204 output91
*1205 output92
*1206 output93
*1207 output94
*1208 output95
*1209 output96
*1210 output97
*1211 output98
*1212 output99

*PORTS
Ci I
FrameStrobe[0] I
FrameStrobe[10] I
FrameStrobe[11] I
FrameStrobe[12] I
FrameStrobe[13] I
FrameStrobe[14] I
FrameStrobe[15] I
FrameStrobe[16] I
FrameStrobe[17] I
FrameStrobe[18] I
FrameStrobe[19] I
FrameStrobe[1] I
FrameStrobe[2] I
FrameStrobe[3] I
FrameStrobe[4] I
FrameStrobe[5] I
FrameStrobe[6] I
FrameStrobe[7] I
FrameStrobe[8] I
FrameStrobe[9] I
FrameStrobe_O[0] O
FrameStrobe_O[10] O
FrameStrobe_O[11] O
FrameStrobe_O[12] O
FrameStrobe_O[13] O
FrameStrobe_O[14] O
FrameStrobe_O[15] O
FrameStrobe_O[16] O
FrameStrobe_O[17] O
FrameStrobe_O[18] O
FrameStrobe_O[19] O
FrameStrobe_O[1] O
FrameStrobe_O[2] O
FrameStrobe_O[3] O
FrameStrobe_O[4] O
FrameStrobe_O[5] O
FrameStrobe_O[6] O
FrameStrobe_O[7] O
FrameStrobe_O[8] O
FrameStrobe_O[9] O
N1END[0] I
N1END[1] I
N1END[2] I
N1END[3] I
N2END[0] I
N2END[1] I
N2END[2] I
N2END[3] I
N2END[4] I
N2END[5] I
N2END[6] I
N2END[7] I
N2MID[0] I
N2MID[1] I
N2MID[2] I
N2MID[3] I
N2MID[4] I
N2MID[5] I
N2MID[6] I
N2MID[7] I
N4END[0] I
N4END[10] I
N4END[11] I
N4END[12] I
N4END[13] I
N4END[14] I
N4END[15] I
N4END[1] I
N4END[2] I
N4END[3] I
N4END[4] I
N4END[5] I
N4END[6] I
N4END[7] I
N4END[8] I
N4END[9] I
NN4END[0] I
NN4END[10] I
NN4END[11] I
NN4END[12] I
NN4END[13] I
NN4END[14] I
NN4END[15] I
NN4END[1] I
NN4END[2] I
NN4END[3] I
NN4END[4] I
NN4END[5] I
NN4END[6] I
NN4END[7] I
NN4END[8] I
NN4END[9] I
S1BEG[0] O
S1BEG[1] O
S1BEG[2] O
S1BEG[3] O
S2BEG[0] O
S2BEG[1] O
S2BEG[2] O
S2BEG[3] O
S2BEG[4] O
S2BEG[5] O
S2BEG[6] O
S2BEG[7] O
S2BEGb[0] O
S2BEGb[1] O
S2BEGb[2] O
S2BEGb[3] O
S2BEGb[4] O
S2BEGb[5] O
S2BEGb[6] O
S2BEGb[7] O
S4BEG[0] O
S4BEG[10] O
S4BEG[11] O
S4BEG[12] O
S4BEG[13] O
S4BEG[14] O
S4BEG[15] O
S4BEG[1] O
S4BEG[2] O
S4BEG[3] O
S4BEG[4] O
S4BEG[5] O
S4BEG[6] O
S4BEG[7] O
S4BEG[8] O
S4BEG[9] O
SS4BEG[0] O
SS4BEG[10] O
SS4BEG[11] O
SS4BEG[12] O
SS4BEG[13] O
SS4BEG[14] O
SS4BEG[15] O
SS4BEG[1] O
SS4BEG[2] O
SS4BEG[3] O
SS4BEG[4] O
SS4BEG[5] O
SS4BEG[6] O
SS4BEG[7] O
SS4BEG[8] O
SS4BEG[9] O
UIO_TOP_UIN0 I
UIO_TOP_UIN1 I
UIO_TOP_UIN10 I
UIO_TOP_UIN11 I
UIO_TOP_UIN12 I
UIO_TOP_UIN13 I
UIO_TOP_UIN14 I
UIO_TOP_UIN15 I
UIO_TOP_UIN16 I
UIO_TOP_UIN17 I
UIO_TOP_UIN18 I
UIO_TOP_UIN19 I
UIO_TOP_UIN2 I
UIO_TOP_UIN3 I
UIO_TOP_UIN4 I
UIO_TOP_UIN5 I
UIO_TOP_UIN6 I
UIO_TOP_UIN7 I
UIO_TOP_UIN8 I
UIO_TOP_UIN9 I
UIO_TOP_UOUT0 O
UIO_TOP_UOUT1 O
UIO_TOP_UOUT10 O
UIO_TOP_UOUT11 O
UIO_TOP_UOUT12 O
UIO_TOP_UOUT13 O
UIO_TOP_UOUT14 O
UIO_TOP_UOUT15 O
UIO_TOP_UOUT16 O
UIO_TOP_UOUT17 O
UIO_TOP_UOUT18 O
UIO_TOP_UOUT19 O
UIO_TOP_UOUT2 O
UIO_TOP_UOUT3 O
UIO_TOP_UOUT4 O
UIO_TOP_UOUT5 O
UIO_TOP_UOUT6 O
UIO_TOP_UOUT7 O
UIO_TOP_UOUT8 O
UIO_TOP_UOUT9 O
UserCLK I
UserCLKo O

*D_NET *2 0.00193629
*CONN
*P FrameStrobe[0] I
*I *1031:A I *D sky130_fd_sc_hd__clkbuf_1
*CAP
1 FrameStrobe[0] 0.000733759
2 *1031:A 0.000733759
3 *1031:A SS4BEG[15] 3.64998e-06
4 *1031:A *1025:A 0
5 *1031:A *1034:A 0.000430298
6 *1031:A *1035:A 0
7 *1031:A *1118:A 0
8 *1031:A *1169:A 3.48268e-05
9 *1031:A *360:18 0
*RES
1 FrameStrobe[0] *1031:A 17.37 
*END

*D_NET *3 0.00212761
*CONN
*P FrameStrobe[10] I
*I *1042:A I *D sky130_fd_sc_hd__buf_1
*CAP
1 FrameStrobe[10] 0.000574629
2 *1042:A 0.000574629
3 *1042:A *1041:A 0
4 *1042:A *1043:A 0.000815252
5 *1042:A *1053:A 7.90757e-05
6 *1042:A *1064:A 0
7 *1042:A *285:22 8.40269e-05
*RES
1 FrameStrobe[10] *1042:A 16.32 
*END

*D_NET *4 0.0019998
*CONN
*P FrameStrobe[11] I
*I *1053:A I *D sky130_fd_sc_hd__buf_1
*CAP
1 FrameStrobe[11] 0.000614516
2 *1053:A 0.000614516
3 *1053:A *1043:A 0
4 *1053:A *1064:A 0.000290864
5 *1053:A *1075:A 4.66108e-05
6 *1053:A *285:22 0.000354213
7 *1042:A *1053:A 7.90757e-05
*RES
1 FrameStrobe[11] *1053:A 17.04 
*END

*D_NET *5 0.00228449
*CONN
*P FrameStrobe[12] I
*I *1064:A I *D sky130_fd_sc_hd__buf_1
*CAP
1 FrameStrobe[12] 0.000491803
2 *1064:A 0.000491803
3 *1064:A *1075:A 0.000527356
4 *1064:A *1086:A 0
5 *1064:A *1097:A 4.77757e-05
6 *1064:A *284:34 8.23457e-05
7 *1064:A *285:22 0.000352539
8 *1042:A *1064:A 0
9 *1053:A *1064:A 0.000290864
*RES
1 FrameStrobe[12] *1064:A 16.425 
*END

*D_NET *6 0.00242317
*CONN
*P FrameStrobe[13] I
*I *1075:A I *D sky130_fd_sc_hd__buf_1
*CAP
1 FrameStrobe[13] 0.000647478
2 *1075:A 0.000647478
3 *1075:A *1086:A 0.000361237
4 *1075:A *1097:A 9.52701e-05
5 *1075:A *1108:A 4.77757e-05
6 *1075:A *295:12 4.99619e-05
7 *1053:A *1075:A 4.66108e-05
8 *1064:A *1075:A 0.000527356
*RES
1 FrameStrobe[13] *1075:A 17.445 
*END

*D_NET *7 0.00185375
*CONN
*P FrameStrobe[14] I
*I *1086:A I *D sky130_fd_sc_hd__buf_1
*CAP
1 FrameStrobe[14] 0.000447904
2 *1086:A 0.000447904
3 *1086:A *1097:A 0.000381083
4 *1086:A *1108:A 0
5 *1086:A *1119:A 0
6 *1086:A *284:34 7.23533e-05
7 *1086:A *295:12 0.000143266
8 *1064:A *1086:A 0
9 *1075:A *1086:A 0.000361237
*RES
1 FrameStrobe[14] *1086:A 15.195 
*END

*D_NET *8 0.00190749
*CONN
*P FrameStrobe[15] I
*I *1097:A I *D sky130_fd_sc_hd__buf_1
*CAP
1 FrameStrobe[15] 0.000417385
2 *1097:A 0.000417385
3 *1097:A *1108:A 0.000366253
4 *1097:A *284:34 7.23533e-05
5 *1097:A *306:26 0.000109991
6 *1064:A *1097:A 4.77757e-05
7 *1075:A *1097:A 9.52701e-05
8 *1086:A *1097:A 0.000381083
*RES
1 FrameStrobe[15] *1097:A 15.42 
*END

*D_NET *9 0.00180262
*CONN
*P FrameStrobe[16] I
*I *1108:A I *D sky130_fd_sc_hd__buf_1
*CAP
1 FrameStrobe[16] 0.000565319
2 *1108:A 0.000565319
3 *1108:A *1032:A 4.99619e-05
4 *1108:A *1119:A 0
5 *1108:A *306:26 0.000113609
6 *1108:A *317:10 9.43793e-05
7 *1075:A *1108:A 4.77757e-05
8 *1086:A *1108:A 0
9 *1097:A *1108:A 0.000366253
*RES
1 FrameStrobe[16] *1108:A 16.035 
*END

*D_NET *10 0.00209796
*CONN
*P FrameStrobe[17] I
*I *1119:A I *D sky130_fd_sc_hd__buf_1
*CAP
1 FrameStrobe[17] 0.000417601
2 *1119:A 0.000417601
3 *1119:A *1032:A 0.000448417
4 *1119:A *1033:A 3.39095e-05
5 *1119:A *191:10 0
6 *1119:A *191:12 0.00023468
7 *1119:A *350:12 0.00025631
8 *1119:A *350:14 0.000196376
9 *1119:A *361:18 9.30674e-05
10 *1086:A *1119:A 0
11 *1108:A *1119:A 0
*RES
1 FrameStrobe[17] *1119:A 19.525 
*END

*D_NET *11 0.00200188
*CONN
*P FrameStrobe[18] I
*I *1032:A I *D sky130_fd_sc_hd__buf_1
*CAP
1 FrameStrobe[18] 0.000452781
2 *1032:A 0.000452781
3 *1032:A *1033:A 0.000395462
4 *1032:A *317:10 9.61313e-05
5 *1032:A *339:30 0.000106344
6 *1108:A *1032:A 4.99619e-05
7 *1119:A *1032:A 0.000448417
*RES
1 FrameStrobe[18] *1032:A 16.035 
*END

*D_NET *12 0.001768
*CONN
*P FrameStrobe[19] I
*I *1033:A I *D sky130_fd_sc_hd__buf_1
*CAP
1 FrameStrobe[19] 0.000488095
2 *1033:A 0.000488095
3 *1033:A *339:30 5.78448e-05
4 *1033:A *350:12 0.00025631
5 *1033:A *361:18 4.82863e-05
6 *1032:A *1033:A 0.000395462
7 *1119:A *1033:A 3.39095e-05
*RES
1 FrameStrobe[19] *1033:A 15.42 
*END

*D_NET *13 0.00229362
*CONN
*P FrameStrobe[1] I
*I *1034:A I *D sky130_fd_sc_hd__clkbuf_1
*CAP
1 FrameStrobe[1] 0.000487519
2 *1034:A 0.000487519
3 *1034:A SS4BEG[14] 0.000105101
4 *1034:A *1025:A 2.30292e-05
5 *1034:A *1035:A 0.000108161
6 *1034:A *1118:A 0.000239813
7 *1034:A *1171:A 9.57555e-05
8 *1034:A *360:18 0.000316421
9 *1031:A *1034:A 0.000430298
*RES
1 FrameStrobe[1] *1034:A 16.965 
*END

*D_NET *14 0.00196281
*CONN
*P FrameStrobe[2] I
*I *1035:A I *D sky130_fd_sc_hd__buf_1
*CAP
1 FrameStrobe[2] 0.000580404
2 *1035:A 0.000580404
3 *1035:A SS4BEG[14] 0.000102792
4 *1035:A *1036:A 0.00045879
5 *1035:A *1037:A 0.00013226
6 *1035:A *1038:A 0
7 *1035:A *1171:A 0
8 *1031:A *1035:A 0
9 *1034:A *1035:A 0.000108161
*RES
1 FrameStrobe[2] *1035:A 15.975 
*END

*D_NET *15 0.002622
*CONN
*P FrameStrobe[3] I
*I *1036:A I *D sky130_fd_sc_hd__clkbuf_1
*CAP
1 FrameStrobe[3] 0.000355756
2 *1036:A 0.000355756
3 *1036:A *1026:A 9.53654e-06
4 *1036:A *1037:A 0.000197132
5 *1036:A *1039:A 0.000148717
6 *1036:A *1040:A 0.000325637
7 *1036:A *191:12 0.000387008
8 *1036:A *350:14 0.000383663
9 *1035:A *1036:A 0.00045879
*RES
1 FrameStrobe[3] *1036:A 20.92 
*END

*D_NET *16 0.00191329
*CONN
*P FrameStrobe[4] I
*I *1037:A I *D sky130_fd_sc_hd__buf_1
*CAP
1 FrameStrobe[4] 0.000542952
2 *1037:A 0.000542952
3 *1037:A *1038:A 0.000377342
4 *1037:A *1039:A 0.000120655
5 *1035:A *1037:A 0.00013226
6 *1036:A *1037:A 0.000197132
*RES
1 FrameStrobe[4] *1037:A 15.975 
*END

*D_NET *17 0.00195221
*CONN
*P FrameStrobe[5] I
*I *1038:A I *D sky130_fd_sc_hd__buf_1
*CAP
1 FrameStrobe[5] 0.000540177
2 *1038:A 0.000540177
3 *1038:A *1026:A 1.86021e-05
4 *1038:A *1039:A 0.000349346
5 *1038:A *1040:A 0.00012657
6 *1035:A *1038:A 0
7 *1037:A *1038:A 0.000377342
*RES
1 FrameStrobe[5] *1038:A 16.725 
*END

*D_NET *18 0.00198275
*CONN
*P FrameStrobe[6] I
*I *1039:A I *D sky130_fd_sc_hd__buf_1
*CAP
1 FrameStrobe[6] 0.000557774
2 *1039:A 0.000557774
3 *1039:A *1026:A 9.50342e-06
4 *1039:A *1040:A 0.000238981
5 *1039:A *1041:A 0
6 *1036:A *1039:A 0.000148717
7 *1037:A *1039:A 0.000120655
8 *1038:A *1039:A 0.000349346
*RES
1 FrameStrobe[6] *1039:A 16.32 
*END

*D_NET *19 0.00214937
*CONN
*P FrameStrobe[7] I
*I *1040:A I *D sky130_fd_sc_hd__buf_1
*CAP
1 FrameStrobe[7] 0.000555328
2 *1040:A 0.000555328
3 *1040:A *938:A 1.16578e-05
4 *1040:A *1041:A 0.000335863
5 *1040:A *1043:A 0
6 *1036:A *1040:A 0.000325637
7 *1038:A *1040:A 0.00012657
8 *1039:A *1040:A 0.000238981
*RES
1 FrameStrobe[7] *1040:A 17.34 
*END

*D_NET *20 0.00184015
*CONN
*P FrameStrobe[8] I
*I *1041:A I *D sky130_fd_sc_hd__buf_1
*CAP
1 FrameStrobe[8] 0.000721826
2 *1041:A 0.000721826
3 *1041:A *938:A 6.07575e-06
4 *1041:A *1030:A 0
5 *1041:A *1043:A 5.45575e-05
6 *1039:A *1041:A 0
7 *1040:A *1041:A 0.000335863
8 *1042:A *1041:A 0
*RES
1 FrameStrobe[8] *1041:A 16.215 
*END

*D_NET *21 0.00223862
*CONN
*P FrameStrobe[9] I
*I *1043:A I *D sky130_fd_sc_hd__buf_1
*CAP
1 FrameStrobe[9] 0.000530791
2 *1043:A 0.000530791
3 *1043:A *938:A 3.00381e-05
4 *1043:A *939:A 8.65905e-05
5 *1043:A *1030:A 0.000190605
6 *1040:A *1043:A 0
7 *1041:A *1043:A 5.45575e-05
8 *1042:A *1043:A 0.000815252
9 *1053:A *1043:A 0
*RES
1 FrameStrobe[9] *1043:A 17.04 
*END

*D_NET *22 0.00119672
*CONN
*P FrameStrobe_O[0] O
*I *1203:X O *D sky130_fd_sc_hd__clkbuf_4
*CAP
1 FrameStrobe_O[0] 0.000598362
2 *1203:X 0.000598362
3 FrameStrobe_O[0] FrameStrobe_O[1] 0
4 FrameStrobe_O[0] UserCLKo 0
*RES
1 *1203:X FrameStrobe_O[0] 13.59 
*END

*D_NET *23 0.00128448
*CONN
*P FrameStrobe_O[10] O
*I *1204:X O *D sky130_fd_sc_hd__clkbuf_4
*CAP
1 FrameStrobe_O[10] 0.000578953
2 *1204:X 0.000578953
3 FrameStrobe_O[10] FrameStrobe_O[11] 0
4 FrameStrobe_O[10] FrameStrobe_O[9] 0
5 FrameStrobe_O[10] *1125:A 0.00012657
*RES
1 *1204:X FrameStrobe_O[10] 13.59 
*END

*D_NET *24 0.00132854
*CONN
*P FrameStrobe_O[11] O
*I *1205:X O *D sky130_fd_sc_hd__clkbuf_4
*CAP
1 FrameStrobe_O[11] 0.000582936
2 *1205:X 0.000582936
3 FrameStrobe_O[11] FrameStrobe_O[12] 0