*SPEF "ieee 1481-1999"
*DESIGN "N_term_RAM_IO"
*DATE "11:11:11 Fri 11 11, 1111"
*VENDOR "OpenRCX"
*PROGRAM "Parallel Extraction"
*VERSION "1.0"
*DESIGN_FLOW "NAME_SCOPE LOCAL" "PIN_CAP NONE"
*DIVIDER /
*DELIMITER :
*BUS_DELIMITER []
*T_UNIT 1 NS
*C_UNIT 1 PF
*R_UNIT 1 OHM
*L_UNIT 1 HENRY

*NAME_MAP
*1 FrameStrobe[0]
*2 FrameStrobe[10]
*3 FrameStrobe[11]
*4 FrameStrobe[12]
*5 FrameStrobe[13]
*6 FrameStrobe[14]
*7 FrameStrobe[15]
*8 FrameStrobe[16]
*9 FrameStrobe[17]
*10 FrameStrobe[18]
*11 FrameStrobe[19]
*12 FrameStrobe[1]
*13 FrameStrobe[2]
*14 FrameStrobe[3]
*15 FrameStrobe[4]
*16 FrameStrobe[5]
*17 FrameStrobe[6]
*18 FrameStrobe[7]
*19 FrameStrobe[8]
*20 FrameStrobe[9]
*21 FrameStrobe_O[0]
*22 FrameStrobe_O[10]
*23 FrameStrobe_O[11]
*24 FrameStrobe_O[12]
*25 FrameStrobe_O[13]
*26 FrameStrobe_O[14]
*27 FrameStrobe_O[15]
*28 FrameStrobe_O[16]
*29 FrameStrobe_O[17]
*30 FrameStrobe_O[18]
*31 FrameStrobe_O[19]
*32 FrameStrobe_O[1]
*33 FrameStrobe_O[2]
*34 FrameStrobe_O[3]
*35 FrameStrobe_O[4]
*36 FrameStrobe_O[5]
*37 FrameStrobe_O[6]
*38 FrameStrobe_O[7]
*39 FrameStrobe_O[8]
*40 FrameStrobe_O[9]
*41 N1END[0]
*42 N1END[1]
*43 N1END[2]
*44 N1END[3]
*45 N2END[0]
*46 N2END[1]
*47 N2END[2]
*48 N2END[3]
*49 N2END[4]
*50 N2END[5]
*51 N2END[6]
*52 N2END[7]
*53 N2MID[0]
*54 N2MID[1]
*55 N2MID[2]
*56 N2MID[3]
*57 N2MID[4]
*58 N2MID[5]
*59 N2MID[6]
*60 N2MID[7]
*61 N4END[0]
*62 N4END[10]
*63 N4END[11]
*64 N4END[12]
*65 N4END[13]
*66 N4END[14]
*67 N4END[15]
*68 N4END[1]
*69 N4END[2]
*70 N4END[3]
*71 N4END[4]
*72 N4END[5]
*73 N4END[6]
*74 N4END[7]
*75 N4END[8]
*76 N4END[9]
*77 S1BEG[0]
*78 S1BEG[1]
*79 S1BEG[2]
*80 S1BEG[3]
*81 S2BEG[0]
*82 S2BEG[1]
*83 S2BEG[2]
*84 S2BEG[3]
*85 S2BEG[4]
*86 S2BEG[5]
*87 S2BEG[6]
*88 S2BEG[7]
*89 S2BEGb[0]
*90 S2BEGb[1]
*91 S2BEGb[2]
*92 S2BEGb[3]
*93 S2BEGb[4]
*94 S2BEGb[5]
*95 S2BEGb[6]
*96 S2BEGb[7]
*97 S4BEG[0]
*98 S4BEG[10]
*99 S4BEG[11]
*100 S4BEG[12]
*101 S4BEG[13]
*102 S4BEG[14]
*103 S4BEG[15]
*104 S4BEG[1]
*105 S4BEG[2]
*106 S4BEG[3]
*107 S4BEG[4]
*108 S4BEG[5]
*109 S4BEG[6]
*110 S4BEG[7]
*111 S4BEG[8]
*112 S4BEG[9]
*113 UserCLK
*114 UserCLKo
*117 Inst_N_term_RAM_IO_switch_matrix\.S1BEG0
*118 Inst_N_term_RAM_IO_switch_matrix\.S1BEG1
*119 Inst_N_term_RAM_IO_switch_matrix\.S1BEG2
*120 Inst_N_term_RAM_IO_switch_matrix\.S1BEG3
*121 Inst_N_term_RAM_IO_switch_matrix\.S2BEG0
*122 Inst_N_term_RAM_IO_switch_matrix\.S2BEG1
*123 Inst_N_term_RAM_IO_switch_matrix\.S2BEG2
*124 Inst_N_term_RAM_IO_switch_matrix\.S2BEG3
*125 Inst_N_term_RAM_IO_switch_matrix\.S2BEG4
*126 Inst_N_term_RAM_IO_switch_matrix\.S2BEG5
*127 Inst_N_term_RAM_IO_switch_matrix\.S2BEG6
*128 Inst_N_term_RAM_IO_switch_matrix\.S2BEG7
*129 Inst_N_term_RAM_IO_switch_matrix\.S2BEGb0
*130 Inst_N_term_RAM_IO_switch_matrix\.S2BEGb1
*131 Inst_N_term_RAM_IO_switch_matrix\.S2BEGb2
*132 Inst_N_term_RAM_IO_switch_matrix\.S2BEGb3
*133 Inst_N_term_RAM_IO_switch_matrix\.S2BEGb4
*134 Inst_N_term_RAM_IO_switch_matrix\.S2BEGb5
*135 Inst_N_term_RAM_IO_switch_matrix\.S2BEGb6
*136 Inst_N_term_RAM_IO_switch_matrix\.S2BEGb7
*137 Inst_N_term_RAM_IO_switch_matrix\.S4BEG0
*138 Inst_N_term_RAM_IO_switch_matrix\.S4BEG1
*139 Inst_N_term_RAM_IO_switch_matrix\.S4BEG10
*140 Inst_N_term_RAM_IO_switch_matrix\.S4BEG11
*141 Inst_N_term_RAM_IO_switch_matrix\.S4BEG12
*142 Inst_N_term_RAM_IO_switch_matrix\.S4BEG13
*143 Inst_N_term_RAM_IO_switch_matrix\.S4BEG14
*144 Inst_N_term_RAM_IO_switch_matrix\.S4BEG15
*145 Inst_N_term_RAM_IO_switch_matrix\.S4BEG2
*146 Inst_N_term_RAM_IO_switch_matrix\.S4BEG3
*147 Inst_N_term_RAM_IO_switch_matrix\.S4BEG4
*148 Inst_N_term_RAM_IO_switch_matrix\.S4BEG5
*149 Inst_N_term_RAM_IO_switch_matrix\.S4BEG6
*150 Inst_N_term_RAM_IO_switch_matrix\.S4BEG7
*151 Inst_N_term_RAM_IO_switch_matrix\.S4BEG8
*152 Inst_N_term_RAM_IO_switch_matrix\.S4BEG9
*153 net1
*154 net10
*155 net100
*156 net101
*157 net102
*158 net103
*159 net104
*160 net105
*161 net106
*162 net107
*163 net108
*164 net109
*165 net11
*166 net110
*167 net111
*168 net112
*169 net113
*170 net114
*171 net12
*172 net13
*173 net14
*174 net15
*175 net16
*176 net17
*177 net18
*178 net19
*179 net2
*180 net20
*181 net21
*182 net22
*183 net23
*184 net24
*185 net25
*186 net26
*187 net27
*188 net28
*189 net29
*190 net3
*191 net30
*192 net31
*193 net32
*194 net33
*195 net34
*196 net35
*197 net36
*198 net37
*199 net38
*200 net39
*201 net4
*202 net40
*203 net41
*204 net42
*205 net43
*206 net44
*207 net45
*208 net46
*209 net47
*210 net48
*211 net49
*212 net5
*213 net50
*214 net51
*215 net52
*216 net53
*217 net54
*218 net55
*219 net56
*220 net57
*221 net58
*222 net59
*223 net6
*224 net60
*225 net61
*226 net62
*227 net63
*228 net64
*229 net65
*230 net66
*231 net67
*232 net68
*233 net69
*234 net7
*235 net70
*236 net71
*237 net72
*238 net73
*239 net74
*240 net75
*241 net76
*242 net77
*243 net78
*244 net79
*245 net8
*246 net80
*247 net81
*248 net82
*249 net83
*250 net84
*251 net85
*252 net86
*253 net87
*254 net88
*255 net89
*256 net9
*257 net90
*258 net91
*259 net92
*260 net93
*261 net94
*262 net95
*263 net96
*264 net97
*265 net98
*266 net99
*267 strobe_inbuf_0\.X
*268 strobe_inbuf_1\.X
*269 strobe_inbuf_10\.X
*270 strobe_inbuf_11\.X
*271 strobe_inbuf_12\.X
*272 strobe_inbuf_13\.X
*273 strobe_inbuf_14\.X
*274 strobe_inbuf_15\.X
*275 strobe_inbuf_16\.X
*276 strobe_inbuf_17\.X
*277 strobe_inbuf_18\.X
*278 strobe_inbuf_19\.X
*279 strobe_inbuf_2\.X
*280 strobe_inbuf_3\.X
*281 strobe_inbuf_4\.X
*282 strobe_inbuf_5\.X
*283 strobe_inbuf_6\.X
*284 strobe_inbuf_7\.X
*285 strobe_inbuf_8\.X
*286 strobe_inbuf_9\.X
*287 strobe_outbuf_0\.X
*288 strobe_outbuf_1\.X
*289 strobe_outbuf_10\.X
*290 strobe_outbuf_11\.X
*291 strobe_outbuf_12\.X
*292 strobe_outbuf_13\.X
*293 strobe_outbuf_14\.X
*294 strobe_outbuf_15\.X
*295 strobe_outbuf_16\.X
*296 strobe_outbuf_17\.X
*297 strobe_outbuf_18\.X
*298 strobe_outbuf_19\.X
*299 strobe_outbuf_2\.X
*300 strobe_outbuf_3\.X
*301 strobe_outbuf_4\.X
*302 strobe_outbuf_5\.X
*303 strobe_outbuf_6\.X
*304 strobe_outbuf_7\.X
*305 strobe_outbuf_8\.X
*306 strobe_outbuf_9\.X
*307 ANTENNA_1
*308 ANTENNA_2
*309 FILLER_0_0_110
*310 FILLER_0_0_126
*311 FILLER_0_0_136
*312 FILLER_0_0_151
*313 FILLER_0_0_253
*314 FILLER_0_0_3
*315 FILLER_0_0_85
*316 FILLER_0_1_10
*317 FILLER_0_1_138
*318 FILLER_0_1_169
*319 FILLER_0_1_231
*320 FILLER_0_1_241
*321 FILLER_0_1_254
*322 FILLER_0_1_3
*323 FILLER_0_1_57
*324 FILLER_0_2_102
*325 FILLER_0_2_106
*326 FILLER_0_2_110
*327 FILLER_0_2_128
*328 FILLER_0_2_133
*329 FILLER_0_2_139
*330 FILLER_0_2_141
*331 FILLER_0_2_149
*332 FILLER_0_2_15
*333 FILLER_0_2_158
*334 FILLER_0_2_195
*335 FILLER_0_2_215
*336 FILLER_0_2_227
*337 FILLER_0_2_253
*338 FILLER_0_2_27
*339 FILLER_0_2_29
*340 FILLER_0_2_37
*341 FILLER_0_2_42
*342 FILLER_0_2_57
*343 FILLER_0_2_65
*344 FILLER_0_2_69
*345 FILLER_0_2_81
*346 FILLER_0_2_85
*347 FILLER_0_2_89
*348 FILLER_0_2_96
*349 FILLER_0_3_105
*350 FILLER_0_3_111
*351 FILLER_0_3_113
*352 FILLER_0_3_125
*353 FILLER_0_3_137
*354 FILLER_0_3_149
*355 FILLER_0_3_15
*356 FILLER_0_3_161
*357 FILLER_0_3_167
*358 FILLER_0_3_169
*359 FILLER_0_3_181
*360 FILLER_0_3_193
*361 FILLER_0_3_205
*362 FILLER_0_3_217
*363 FILLER_0_3_223
*364 FILLER_0_3_225
*365 FILLER_0_3_237
*366 FILLER_0_3_253
*367 FILLER_0_3_27
*368 FILLER_0_3_3
*369 FILLER_0_3_39
*370 FILLER_0_3_51
*371 FILLER_0_3_55
*372 FILLER_0_3_57
*373 FILLER_0_3_69
*374 FILLER_0_3_81
*375 FILLER_0_3_93
*376 FILLER_0_4_109
*377 FILLER_0_4_121
*378 FILLER_0_4_133
*379 FILLER_0_4_139
*380 FILLER_0_4_141
*381 FILLER_0_4_15
*382 FILLER_0_4_153
*383 FILLER_0_4_165
*384 FILLER_0_4_177
*385 FILLER_0_4_189
*386 FILLER_0_4_195
*387 FILLER_0_4_197
*388 FILLER_0_4_209
*389 FILLER_0_4_221
*390 FILLER_0_4_233
*391 FILLER_0_4_245
*392 FILLER_0_4_251
*393 FILLER_0_4_253
*394 FILLER_0_4_27
*395 FILLER_0_4_29
*396 FILLER_0_4_3
*397 FILLER_0_4_41
*398 FILLER_0_4_53
*399 FILLER_0_4_65
*400 FILLER_0_4_77
*401 FILLER_0_4_83
*402 FILLER_0_4_85
*403 FILLER_0_4_97
*404 FILLER_0_5_105
*405 FILLER_0_5_111
*406 FILLER_0_5_113
*407 FILLER_0_5_125
*408 FILLER_0_5_137
*409 FILLER_0_5_149
*410 FILLER_0_5_15
*411 FILLER_0_5_161
*412 FILLER_0_5_167
*413 FILLER_0_5_169
*414 FILLER_0_5_181
*415 FILLER_0_5_193
*416 FILLER_0_5_205
*417 FILLER_0_5_217
*418 FILLER_0_5_223
*419 FILLER_0_5_225
*420 FILLER_0_5_237
*421 FILLER_0_5_249
*422 FILLER_0_5_27
*423 FILLER_0_5_3
*424 FILLER_0_5_39
*425 FILLER_0_5_51
*426 FILLER_0_5_55
*427 FILLER_0_5_57
*428 FILLER_0_5_69
*429 FILLER_0_5_81
*430 FILLER_0_5_93
*431 FILLER_0_6_109
*432 FILLER_0_6_121
*433 FILLER_0_6_133
*434 FILLER_0_6_139
*435 FILLER_0_6_141
*436 FILLER_0_6_15
*437 FILLER_0_6_153
*438 FILLER_0_6_165
*439 FILLER_0_6_177
*440 FILLER_0_6_189
*441 FILLER_0_6_195
*442 FILLER_0_6_197
*443 FILLER_0_6_209
*444 FILLER_0_6_221
*445 FILLER_0_6_233
*446 FILLER_0_6_245
*447 FILLER_0_6_253
*448 FILLER_0_6_27
*449 FILLER_0_6_29
*450 FILLER_0_6_3
*451 FILLER_0_6_41
*452 FILLER_0_6_53
*453 FILLER_0_6_65
*454 FILLER_0_6_77
*455 FILLER_0_6_83
*456 FILLER_0_6_85
*457 FILLER_0_6_97
*458 FILLER_0_7_106
*459 FILLER_0_7_111
*460 FILLER_0_7_113
*461 FILLER_0_7_117
*462 FILLER_0_7_121
*463 FILLER_0_7_126
*464 FILLER_0_7_137
*465 FILLER_0_7_145
*466 FILLER_0_7_15
*467 FILLER_0_7_152
*468 FILLER_0_7_160
*469 FILLER_0_7_164
*470 FILLER_0_7_169
*471 FILLER_0_7_173
*472 FILLER_0_7_177
*473 FILLER_0_7_185
*474 FILLER_0_7_191
*475 FILLER_0_7_203
*476 FILLER_0_7_208
*477 FILLER_0_7_220
*478 FILLER_0_7_225
*479 FILLER_0_7_237
*480 FILLER_0_7_249
*481 FILLER_0_7_253
*482 FILLER_0_7_27
*483 FILLER_0_7_3
*484 FILLER_0_7_39
*485 FILLER_0_7_51
*486 FILLER_0_7_55
*487 FILLER_0_7_60
*488 FILLER_0_7_64
*489 FILLER_0_7_68
*490 FILLER_0_7_73
*491 FILLER_0_7_81
*492 FILLER_0_7_86
*493 FILLER_0_7_94
*494 FILLER_0_7_98
*495 FILLER_0_8_104
*496 FILLER_0_8_109
*497 FILLER_0_8_115
*498 FILLER_0_8_119
*499 FILLER_0_8_124
*500 FILLER_0_8_135
*501 FILLER_0_8_139
*502 FILLER_0_8_141
*503 FILLER_0_8_15
*504 FILLER_0_8_150
*505 FILLER_0_8_158
*506 FILLER_0_8_162
*507 FILLER_0_8_170
*508 FILLER_0_8_175
*509 FILLER_0_8_183
*510 FILLER_0_8_189
*511 FILLER_0_8_195
*512 FILLER_0_8_197
*513 FILLER_0_8_206
*514 FILLER_0_8_218
*515 FILLER_0_8_230
*516 FILLER_0_8_242
*517 FILLER_0_8_253
*518 FILLER_0_8_27
*519 FILLER_0_8_29
*520 FILLER_0_8_3
*521 FILLER_0_8_41
*522 FILLER_0_8_53
*523 FILLER_0_8_57
*524 FILLER_0_8_65
*525 FILLER_0_8_71
*526 FILLER_0_8_79
*527 FILLER_0_8_85
*528 FILLER_0_8_96
*529 FILLER_0_9_110
*530 FILLER_0_9_113
*531 FILLER_0_9_126
*532 FILLER_0_9_136
*533 FILLER_0_9_16
*534 FILLER_0_9_162
*535 FILLER_0_9_178
*536 FILLER_0_9_188
*537 FILLER_0_9_206
*538 FILLER_0_9_217
*539 FILLER_0_9_228
*540 FILLER_0_9_240
*541 FILLER_0_9_253
*542 FILLER_0_9_35
*543 FILLER_0_9_42
*544 FILLER_0_9_48
*545 FILLER_0_9_55
*546 FILLER_0_9_60
*547 FILLER_0_9_71
*548 FILLER_0_9_85
*549 FILLER_0_9_9
*550 FILLER_0_9_97
*551 Inst_N_term_RAM_IO_switch_matrix\._00_
*552 Inst_N_term_RAM_IO_switch_matrix\._01_
*553 Inst_N_term_RAM_IO_switch_matrix\._02_
*554 Inst_N_term_RAM_IO_switch_matrix\._03_
*555 Inst_N_term_RAM_IO_switch_matrix\._04_
*556 Inst_N_term_RAM_IO_switch_matrix\._05_
*557 Inst_N_term_RAM_IO_switch_matrix\._06_
*558 Inst_N_term_RAM_IO_switch_matrix\._07_
*559 Inst_N_term_RAM_IO_switch_matrix\._08_
*560 Inst_N_term_RAM_IO_switch_matrix\._09_
*561 Inst_N_term_RAM_IO_switch_matrix\._10_
*562 Inst_N_term_RAM_IO_switch_matrix\._11_
*563 Inst_N_term_RAM_IO_switch_matrix\._12_
*564 Inst_N_term_RAM_IO_switch_matrix\._13_
*565 Inst_N_term_RAM_IO_switch_matrix\._14_
*566 Inst_N_term_RAM_IO_switch_matrix\._15_
*567 Inst_N_term_RAM_IO_switch_matrix\._16_
*568 Inst_N_term_RAM_IO_switch_matrix\._17_
*569 Inst_N_term_RAM_IO_switch_matrix\._18_
*570 Inst_N_term_RAM_IO_switch_matrix\._19_
*571 Inst_N_term_RAM_IO_switch_matrix\._20_
*572 Inst_N_term_RAM_IO_switch_matrix\._21_
*573 Inst_N_term_RAM_IO_switch_matrix\._22_
*574 Inst_N_term_RAM_IO_switch_matrix\._23_
*575 Inst_N_term_RAM_IO_switch_matrix\._24_
*576 Inst_N_term_RAM_IO_switch_matrix\._25_
*577 Inst_N_term_RAM_IO_switch_matrix\._26_
*578 Inst_N_term_RAM_IO_switch_matrix\._27_
*579 Inst_N_term_RAM_IO_switch_matrix\._28_
*580 Inst_N_term_RAM_IO_switch_matrix\._29_
*581 Inst_N_term_RAM_IO_switch_matrix\._30_
*582 Inst_N_term_RAM_IO_switch_matrix\._31_
*583 Inst_N_term_RAM_IO_switch_matrix\._32_
*584 Inst_N_term_RAM_IO_switch_matrix\._33_
*585 Inst_N_term_RAM_IO_switch_matrix\._34_
*586 Inst_N_term_RAM_IO_switch_matrix\._35_
*587 PHY_0
*588 PHY_1
*589 PHY_10
*590 PHY_11
*591 PHY_12
*592 PHY_13
*593 PHY_14
*594 PHY_15
*595 PHY_16
*596 PHY_17
*597 PHY_18
*598 PHY_19
*599 PHY_2
*600 PHY_3
*601 PHY_4
*602 PHY_5
*603 PHY_6
*604 PHY_7
*605 PHY_8
*606 PHY_9
*607 TAP_20
*608 TAP_21
*609 TAP_22
*610 TAP_23
*611 TAP_24
*612 TAP_25
*613 TAP_26
*614 TAP_27
*615 TAP_28
*616 TAP_29
*617 TAP_30
*618 TAP_31
*619 TAP_32
*620 TAP_33
*621 TAP_34
*622 TAP_35
*623 TAP_36
*624 TAP_37
*625 TAP_38
*626 TAP_39
*627 TAP_40
*628 TAP_41
*629 TAP_42
*630 TAP_43
*631 TAP_44
*632 TAP_45
*633 TAP_46
*634 TAP_47
*635 TAP_48
*636 TAP_49
*637 TAP_50
*638 TAP_51
*639 TAP_52
*640 TAP_53
*641 TAP_54
*642 TAP_55
*643 TAP_56
*644 TAP_57
*645 TAP_58
*646 TAP_59
*647 TAP_60
*648 TAP_61
*649 TAP_62
*650 TAP_63
*651 TAP_64
*652 TAP_65
*653 TAP_66
*654 TAP_67
*655 TAP_68
*656 TAP_69
*657 TAP_70
*658 TAP_71
*659 TAP_72
*660 TAP_73
*661 _00_
*662 _01_
*663 _02_
*664 _03_
*665 _04_
*666 _05_
*667 _06_
*668 _07_
*669 _08_
*670 _09_
*671 _10_
*672 _11_
*673 _12_
*674 _13_
*675 _14_
*676 _15_
*677 _16_
*678 _17_
*679 _18_
*680 _19_
*681 _20_
*682 _21_
*683 _22_
*684 _23_
*685 _24_
*686 _25_
*687 _26_
*688 _27_
*689 _28_
*690 _29_
*691 _30_
*692 _31_
*693 _32_
*694 _33_
*695 _34_
*696 _35_
*697 _36_
*698 _37_
*699 _38_
*700 _39_
*701 _40_
*702 _41_
*703 _42_
*704 _43_
*705 _44_
*706 _45_
*707 _46_
*708 _47_
*709 _48_
*710 _49_
*711 _50_
*712 _51_
*713 _52_
*714 _53_
*715 _54_
*716 _55_
*717 input1
*718 input10
*719 input11
*720 input12
*721 input13
*722 input14
*723 input15
*724 input16
*725 input17
*726 input18
*727 input19
*728 input2
*729 input20
*730 input21
*731 input22
*732 input23
*733 input24
*734 input25
*735 input26
*736 input27
*737 input28
*738 input29
*739 input3
*740 input30
*741 input31
*742 input32
*743 input33
*744 input34
*745 input35
*746 input36
*747 input37
*748 input38
*749 input39
*750 input4
*751 input40
*752 input41
*753 input42
*754 input43
*755 input44
*756 input45
*757 input46
*758 input47
*759 input48
*760 input49
*761 input5
*762 input50
*763 input51
*764 input52
*765 input53
*766 input54
*767 input55
*768 input56
*769 input57
*770 input6
*771 input7
*772 input8
*773 input9
*774 inst_clk_buf
*775 output100
*776 output101
*777 output102
*778 output103
*779 output104
*780 output105
*781 output106
*782 output107
*783 output108
*784 output109
*785 output110
*786 output111
*787 output112
*788 output113
*789 output114
*790 output58
*791 output59
*792 output60
*793 output61
*794 output62
*795 output63
*796 output64
*797 output65
*798 output66
*799 output67
*800 output68
*801 output69
*802 output70
*803 output71
*804 output72
*805 output73
*806 output74
*807 output75
*808 output76
*809 output77
*810 output78
*811 output79
*812 output80
*813 output81
*814 output82
*815 output83
*816 output84
*817 output85
*818 output86
*819 output87
*820 output88
*821 output89
*822 output90
*823 output91
*824 output92
*825 output93
*826 output94
*827 output95
*828 output96
*829 output97
*830 output98
*831 output99
*832 strobe_inbuf_0\._0_
*833 strobe_inbuf_1\._0_
*834 strobe_inbuf_10\._0_
*835 strobe_inbuf_11\._0_
*836 strobe_inbuf_12\._0_
*837 strobe_inbuf_13\._0_
*838 strobe_inbuf_14\._0_
*839 strobe_inbuf_15\._0_
*840 strobe_inbuf_16\._0_
*841 strobe_inbuf_17\._0_
*842 strobe_inbuf_18\._0_
*843 strobe_inbuf_19\._0_
*844 strobe_inbuf_2\._0_
*845 strobe_inbuf_3\._0_
*846 strobe_inbuf_4\._0_
*847 strobe_inbuf_5\._0_
*848 strobe_inbuf_6\._0_
*849 strobe_inbuf_7\._0_
*850 strobe_inbuf_8\._0_
*851 strobe_inbuf_9\._0_
*852 strobe_outbuf_0\._0_
*853 strobe_outbuf_1\._0_
*854 strobe_outbuf_10\._0_
*855 strobe_outbuf_11\._0_
*856 strobe_outbuf_12\._0_
*857 strobe_outbuf_13\._0_
*858 strobe_outbuf_14\._0_
*859 strobe_outbuf_15\._0_
*860 strobe_outbuf_16\._0_
*861 strobe_outbuf_17\._0_
*862 strobe_outbuf_18\._0_
*863 strobe_outbuf_19\._0_
*864 strobe_outbuf_2\._0_
*865 strobe_outbuf_3\._0_
*866 strobe_outbuf_4\._0_
*867 strobe_outbuf_5\._0_
*868 strobe_outbuf_6\._0_
*869 strobe_outbuf_7\._0_
*870 strobe_outbuf_8\._0_
*871 strobe_outbuf_9\._0_

*PORTS
FrameStrobe[0] I
FrameStrobe[10] I
FrameStrobe[11] I
FrameStrobe[12] I
FrameStrobe[13] I
FrameStrobe[14] I
FrameStrobe[15] I
FrameStrobe[16] I
FrameStrobe[17] I
FrameStrobe[18] I
FrameStrobe[19] I
FrameStrobe[1] I
FrameStrobe[2] I
FrameStrobe[3] I
FrameStrobe[4] I
FrameStrobe[5] I
FrameStrobe[6] I
FrameStrobe[7] I
FrameStrobe[8] I
FrameStrobe[9] I
FrameStrobe_O[0] O
FrameStrobe_O[10] O
FrameStrobe_O[11] O
FrameStrobe_O[12] O
FrameStrobe_O[13] O
FrameStrobe_O[14] O
FrameStrobe_O[15] O
FrameStrobe_O[16] O
FrameStrobe_O[17] O
FrameStrobe_O[18] O
FrameStrobe_O[19] O
FrameStrobe_O[1] O
FrameStrobe_O[2] O
FrameStrobe_O[3] O
FrameStrobe_O[4] O
FrameStrobe_O[5] O
FrameStrobe_O[6] O
FrameStrobe_O[7] O
FrameStrobe_O[8] O
FrameStrobe_O[9] O
N1END[0] I
N1END[1] I
N1END[2] I
N1END[3] I
N2END[0] I
N2END[1] I
N2END[2] I
N2END[3] I
N2END[4] I
N2END[5] I
N2END[6] I
N2END[7] I
N2MID[0] I
N2MID[1] I
N2MID[2] I
N2MID[3] I
N2MID[4] I
N2MID[5] I
N2MID[6] I
N2MID[7] I
N4END[0] I
N4END[10] I
N4END[11] I
N4END[12] I
N4END[13] I
N4END[14] I
N4END[15] I
N4END[1] I
N4END[2] I
N4END[3] I
N4END[4] I
N4END[5] I
N4END[6] I
N4END[7] I
N4END[8] I
N4END[9] I
S1BEG[0] O
S1BEG[1] O
S1BEG[2] O
S1BEG[3] O
S2BEG[0] O
S2BEG[1] O
S2BEG[2] O
S2BEG[3] O
S2BEG[4] O
S2BEG[5] O
S2BEG[6] O
S2BEG[7] O
S2BEGb[0] O
S2BEGb[1] O
S2BEGb[2] O
S2BEGb[3] O
S2BEGb[4] O
S2BEGb[5] O
S2BEGb[6] O
S2BEGb[7] O
S4BEG[0] O
S4BEG[10] O
S4BEG[11] O
S4BEG[12] O
S4BEG[13] O
S4BEG[14] O
S4BEG[15] O
S4BEG[1] O
S4BEG[2] O
S4BEG[3] O
S4BEG[4] O
S4BEG[5] O
S4BEG[6] O
S4BEG[7] O
S4BEG[8] O
S4BEG[9] O
UserCLK I
UserCLKo O

*D_NET *1 0.00227339
*CONN
*P FrameStrobe[0] I
*I *717:A I *D sky130_fd_sc_hd__clkbuf_1
*CAP
1 FrameStrobe[0] 0.000505107
2 *717:A 0.000505107
3 *717:A S4BEG[14] 1.08758e-05
4 *717:A *586:A 4.04602e-05
5 *717:A *690:A 9.37731e-05
6 *717:A *713:A 7.00889e-06
7 *717:A *720:A 0.000109785
8 *717:A *722:A 8.84544e-05
9 *717:A *724:A 0
10 *717:A *769:A 8.26071e-05
11 *717:A *778:A 5.53249e-06
12 *717:A *832:A 5.05521e-05
13 *717:A *171:18 0.000386226
14 *717:A *177:34 0.000387902
*RES
1 FrameStrobe[0] *717:A 19.81 
*END

*D_NET *2 0.00228862
*CONN
*P FrameStrobe[10] I
*I *728:A I *D sky130_fd_sc_hd__buf_1
*CAP
1 FrameStrobe[10] 0.000433459
2 *728:A 0.000433459
3 *728:A *714:A 3.23663e-05
4 *728:A *719:A 0.000333785
5 *728:A *723:A 4.91994e-05
6 *728:A *729:A 9.58088e-05
7 *728:A *739:A 9.87619e-05
8 *728:A *770:A 0.00011495
9 *728:A *838:A 0.000272984
10 *728:A *861:A 8.57024e-05
11 *728:A *172:12 8.87475e-05
12 *728:A *174:20 6.72196e-05
13 *728:A *175:18 0.000120186
14 *728:A *180:16 6.19914e-05
*RES
1 FrameStrobe[10] *728:A 20.425 
*END

*D_NET *3 0.00212796
*CONN
*P FrameStrobe[11] I
*I *739:A I *D sky130_fd_sc_hd__buf_1
*CAP
1 FrameStrobe[11] 0.000452877
2 *739:A 0.000452877
3 *739:A *711:A 7.67415e-06
4 *739:A *712:A 0.00013019
5 *739:A *718:A 7.23533e-05
6 *739:A *719:A 0.000392991
7 *739:A *726:A 0
8 *739:A *750:A 8.85958e-05
9 *739:A *838:A 8.40269e-05
10 *739:A *840:A 6.57145e-05
11 *739:A *858:A 9.79155e-05
12 *739:A *859:A 8.63908e-05
13 *739:A *177:34 9.75871e-05
14 *728:A *739:A 9.87619e-05
*RES
1 FrameStrobe[11] *739:A 15.21 
*END

*D_NET *4 0.00168614
*CONN
*P FrameStrobe[12] I
*I *750:A I *D sky130_fd_sc_hd__clkbuf_1
*CAP
1 FrameStrobe[12] 0.000424305
2 *750:A 0.000424305
3 *750:A *711:A 7.60429e-05
4 *750:A *718:A 6.10014e-05
5 *750:A *726:A 0.000100036
6 *750:A *727:A 6.2706e-05
7 *750:A *761:A 0.000224092
8 *750:A *839:A 9.50342e-06
9 *750:A *840:A 7.58953e-05
10 *750:A *859:A 7.4027e-05
11 *750:A *176:20 3.63701e-06
12 *750:A *177:34 6.1994e-05
13 *739:A *750:A 8.85958e-05
*RES
1 FrameStrobe[12] *750:A 13.695 
*END

*D_NET *5 0.00202292
*CONN
*P FrameStrobe[13] I
*I *761:A I *D sky130_fd_sc_hd__clkbuf_1
*CAP
1 FrameStrobe[13] 0.000550817
2 *761:A 0.000550817
3 *761:A *711:A 0.000180682
4 *761:A *712:A 0.000141606
5 *761:A *727:A 3.57702e-05
6 *761:A *770:A 4.57558e-05
7 *761:A *771:A 8.39512e-05
8 *761:A *839:A 8.57024e-05
9 *761:A *842:A 5.78276e-05
10 *761:A *178:18 6.58964e-05
11 *750:A *761:A 0.000224092
*RES
1 FrameStrobe[13] *761:A 16.29 
*END

*D_NET *6 0.00238117
*CONN
*P FrameStrobe[14] I
*I *770:A I *D sky130_fd_sc_hd__clkbuf_1
*CAP
1 FrameStrobe[14] 0.000742493
2 *770:A 0.000742493
3 *770:A *719:A 0
4 *770:A *724:A 0
5 *770:A *726:A 0.000142615
6 *770:A *727:A 0.000172031
7 *770:A *729:A 0
8 *770:A *771:A 4.57558e-05
9 *770:A *860:A 0
10 *770:A *171:18 2.88322e-05
11 *770:A *172:12 0.000195318
12 *770:A *173:34 3.63701e-06
13 *770:A *177:34 0.00014729
14 *728:A *770:A 0.00011495
15 *761:A *770:A 4.57558e-05
*RES
1 FrameStrobe[14] *770:A 22.435 
*END

*D_NET *7 0.00249571
*CONN
*P FrameStrobe[15] I
*I *771:A I *D sky130_fd_sc_hd__clkbuf_1
*CAP
1 FrameStrobe[15] 0.000372262
2 *771:A 0.000372262
3 *771:A *712:A 4.03082e-05
4 *771:A *772:A 0.00114228
5 *771:A *773:A 0.000104153
6 *771:A *178:18 3.86529e-05
7 *771:A *190:14 0.000296081
8 *761:A *771:A 8.39512e-05
9 *770:A *771:A 4.57558e-05
*RES
1 FrameStrobe[15] *771:A 16.68 
*END

*D_NET *8 0.00260692
*CONN
*P FrameStrobe[16] I
*I *772:A I *D sky130_fd_sc_hd__clkbuf_1
*CAP
1 FrameStrobe[16] 0.000658113
2 *772:A 0.000658113
3 *772:A *773:A 6.18239e-05
4 *772:A *839:A 8.65905e-05
5 *771:A *772:A 0.00114228
*RES
1 FrameStrobe[16] *772:A 18.855 
*END

*D_NET *9 0.0023835
*CONN
*P FrameStrobe[17] I
*I *773:A I *D sky130_fd_sc_hd__clkbuf_1
*CAP
1 FrameStrobe[17] 0.000998834
2 *773:A 0.000998834
3 *773:A *718:A 0.000205469
4 *773:A *840:A 1.4389e-05
5 *773:A *190:14 0
6 *771:A *773:A 0.000104153
7 *772:A *773:A 6.18239e-05
*RES
1 FrameStrobe[17] *773:A 21.33 
*END

*D_NET *10 0.00257098
*CONN
*P FrameStrobe[18] I
*I *718:A I *D sky130_fd_sc_hd__clkbuf_1
*CAP
1 FrameStrobe[18] 0.000814274
2 *718:A 0.000814274
3 *718:A *711:A 4.66108e-05
4 *718:A *719:A 0.00018919
5 *718:A *726:A 2.49909e-05
6 *718:A *840:A 0.000202032
7 *718:A *858:A 0.000120655
8 *718:A *177:34 8.73389e-06
9 *718:A *178:18 1.1392e-05
10 *739:A *718:A 7.23533e-05
11 *750:A *718:A 6.10014e-05
12 *773:A *718:A 0.000205469
*RES
1 FrameStrobe[18] *718:A 28.325 
*END

*D_NET *11 0.00321432
*CONN
*P FrameStrobe[19] I
*I *719:A I *D sky130_fd_sc_hd__clkbuf_1
*CAP
1 FrameStrobe[19] 0.000840992
2 *719:A 0.000840992
3 *719:A *714:A 6.36578e-05
4 *719:A *837:A 8.49205e-05
5 *719:A *861:A 0
6 *719:A *177:34 4.92935e-05
7 *719:A *178:18 0.000418498
8 *718:A *719:A 0.00018919
9 *728:A *719:A 0.000333785
10 *739:A *719:A 0.000392991
11 *770:A *719:A 0
*RES
1 FrameStrobe[19] *719:A 26.08 
*END

*D_NET *12 0.0020233
*CONN
*P FrameStrobe[1] I
*I *720:A I *D sky130_fd_sc_hd__buf_1
*CAP
1 FrameStrobe[1] 0.000734248
2 *720:A 0.000734248
3 *720:A S4BEG[14] 0
4 *720:A S4BEG[15] 5.062e-06
5 *720:A *578:A 0.000122797
6 *720:A *586:A 3.69837e-05
7 *720:A *690:A 1.26214e-05
8 *720:A *721:A 0.000117877
9 *720:A *722:A 3.00345e-05
10 *720:A *769:A 0
11 *720:A *779:A 0.00011964
12 *717:A *720:A 0.000109785
*RES
1 FrameStrobe[1] *720:A 15.105 
*END

*D_NET *13 0.00214036
*CONN
*P FrameStrobe[2] I
*I *721:A I *D sky130_fd_sc_hd__buf_1
*CAP
1 FrameStrobe[2] 0.000519968
2 *721:A 0.000519968
3 *721:A *722:A 9.90094e-05
4 *721:A *724:A 0.00013521
5 *721:A *725:A 1.98623e-05
6 *721:A *171:18 0.000347029
7 *721:A *172:12 0
8 *721:A *174:20 3.86607e-05
9 *721:A *178:18 0.000342778
10 *720:A *721:A 0.000117877
*RES
1 FrameStrobe[2] *721:A 18.52 
*END

*D_NET *14 0.00227326
*CONN
*P FrameStrobe[3] I
*I *722:A I *D sky130_fd_sc_hd__buf_1
*CAP
1 FrameStrobe[3] 0.000544635
2 *722:A 0.000544635
3 *722:A *578:A 0.000121643
4 *722:A *586:A 0.000123304
5 *722:A *723:A 0.000196214
6 *722:A *724:A 0.00023592
7 *722:A *725:A 0.000271403
8 *722:A *172:12 9.03508e-06
9 *722:A *173:34 8.96893e-06
10 *717:A *722:A 8.84544e-05
11 *720:A *722:A 3.00345e-05
12 *721:A *722:A 9.90094e-05
*RES
1 FrameStrobe[3] *722:A 15.645 
*END

*D_NET *15 0.00218265
*CONN
*P FrameStrobe[4] I
*I *723:A I *D sky130_fd_sc_hd__buf_1
*CAP
1 FrameStrobe[4] 0.000305639
2 *723:A 0.000305639
3 *723:A *724:A 0.000109785
4 *723:A *729:A 0.000174484
5 *723:A *171:18 0.000308841
6 *723:A *174:20 3.14155e-05
7 *723:A *177:34 0.000604892
8 *723:A *178:18 9.65388e-05
9 *722:A *723:A 0.000196214
10 *728:A *723:A 4.91994e-05
*RES
1 FrameStrobe[4] *723:A 18.205 
*END

*D_NET *16 0.00157803
*CONN
*P FrameStrobe[5] I
*I *724:A I *D sky130_fd_sc_hd__buf_1
*CAP
1 FrameStrobe[5] 0.000506832
2 *724:A 0.000506832
3 *724:A *578:A 1.79483e-05
4 *724:A *696:A 7.96104e-06
5 *724:A *713:A 1.9872e-05
6 *724:A *725:A 0
7 *724:A *726:A 0
8 *724:A *860:A 0
9 *724:A *174:20 2.88519e-05
10 *724:A *180:16 8.81801e-06
11 *717:A *724:A 0
12 *721:A *724:A 0.00013521
13 *722:A *724:A 0.00023592
14 *723:A *724:A 0.000109785
15 *770:A *724:A 0
*RES
1 FrameStrobe[5] *724:A 13.155 
*END

*D_NET *17 0.00238547
*CONN
*P FrameStrobe[6] I
*I *725:A I *D sky130_fd_sc_hd__buf_1
*CAP
1 FrameStrobe[6] 0.000644855
2 *725:A 0.000644855
3 *725:A *578:A 4.61701e-06
4 *725:A *696:A 9.58678e-06
5 *725:A *726:A 0
6 *725:A *840:A 0.000113644
7 *725:A *860:A 0.000460629
8 *725:A *171:18 4.56959e-05
9 *725:A *173:34 1.4389e-05
10 *725:A *174:20 0.000155928
11 *721:A *725:A 1.98623e-05
12 *722:A *725:A 0.000271403
13 *724:A *725:A 0
*RES
1 FrameStrobe[6] *725:A 16.74 
*END

*D_NET *18 0.00241945
*CONN
*P FrameStrobe[7] I
*I *726:A I *D sky130_fd_sc_hd__buf_1
*CAP
1 FrameStrobe[7] 0.000715095
2 *726:A 0.000715095
3 *726:A *727:A 0.000472911
4 *726:A *171:18 8.10457e-05
5 *726:A *173:34 7.87235e-05
6 *726:A *176:20 2.29402e-05
7 *726:A *177:34 6.60001e-05
8 *718:A *726:A 2.49909e-05
9 *724:A *726:A 0
10 *725:A *726:A 0
11 *739:A *726:A 0
12 *750:A *726:A 0.000100036
13 *770:A *726:A 0.000142615
*RES
1 FrameStrobe[7] *726:A 11.3453 
*END

*D_NET *19 0.0022112
*CONN
*P FrameStrobe[8] I
*I *727:A I *D sky130_fd_sc_hd__buf_1
*CAP
1 FrameStrobe[8] 0.00055876
2 *727:A 0.00055876
3 *727:A *729:A 0.000350258
4 *726:A *727:A 0.000472911
5 *750:A *727:A 6.2706e-05
6 *761:A *727:A 3.57702e-05
7 *770:A *727:A 0.000172031
*RES
1 FrameStrobe[8] *727:A 11.1237 
*END

*D_NET *20 0.00148693
*CONN
*P FrameStrobe[9] I
*I *729:A I *D sky130_fd_sc_hd__buf_1
*CAP
1 FrameStrobe[9] 0.000387416
2 *729:A 0.000387416
3 *729:A *861:A 8.53113e-06
4 *729:A *172:12 6.19731e-05
5 *729:A *173:34 2.10433e-05
6 *723:A *729:A 0.000174484
7 *727:A *729:A 0.000350258
8 *728:A *729:A 9.58088e-05
9 *770:A *729:A 0
*RES
1 FrameStrobe[9] *729:A 11.46 
*END

*D_NET *21 0.000924564
*CONN
*P FrameStrobe_O[0] O
*I *790:X O *D sky130_fd_sc_hd__buf_2
*CAP
1 FrameStrobe_O[0] 0.000418149
2 *790:X 0.000418149
3 FrameStrobe_O[0] UserCLKo 0
4 FrameStrobe_O[0] *790:A 8.8266e-05
*RES
1 *790:X FrameStrobe_O[0] 10.53 
*END

*D_NET *22 0.000743685
*CONN
*P FrameStrobe_O[10] O
*I *791:X O *D sky130_fd_sc_hd__clkbuf_4
*CAP
1 FrameStrobe_O[10] 0.000371842
2 *791:X 0.000371842
*RES
1 *791:X FrameStrobe_O[10] 10.185 
*END

*D_NET *23 0.000705679
*CONN
*P FrameStrobe_O[11] O
*I *792:X O *D sky130_fd_sc_hd__clkbuf_4
*CAP
1 FrameStrobe_O[11] 0.000352839
2 *792:X 0.000352839
*RES
1 *792:X FrameStrobe_O[11] 9.84 
*END

*D_NET *24 0.000819697
*CONN
*P FrameStrobe_O[12] O
*I *793:X O *D sky130_fd_sc_hd__clkbuf_4
*CAP
1 FrameStrobe_O[12] 0.000409848
2 *793:X 0.000409848
*RES
1 *793:X FrameStrobe_O[12] 10.875 
*END

*D_NET *25 0.000781691
*CONN
*P FrameStrobe_O[13] O
*I *794:X O *D sky130_fd_sc_hd__clkbuf_4
*CAP
1 FrameStrobe_O[13] 0.000390845
2 *794:X 0.000390845
*RES
1 *794:X FrameStrobe_O[13] 10.53 
*END

*D_NET *26 0.000895709
*CONN
*P FrameStrobe_O[14] O
*I *795:X O *D sky130_fd_sc_hd__clkbuf_4
*CAP
1 FrameStrobe_O[14] 0.000447854
2 *795:X 0.000447854
3 FrameStrobe_O[14] FrameStrobe_O[15] 0
*RES
1 *795:X FrameStrobe_O[14] 11.565 
*END

*D_NET *27 0.000781691
*CONN
*P FrameStrobe_O[15] O
*I *796:X O *D sky130_fd_sc_hd__buf_2
*CAP
1 FrameStrobe_O[15] 0.000390845
2 *796:X 0.000390845
3 FrameStrobe_O[14] FrameStrobe_O[15] 0
*RES
1 *796:X FrameStrobe_O[15] 10.53 
*END

*D_NET *28 0.000781691
*CONN
*P FrameStrobe_O[16] O
*I *797:X O *D sky130_fd_sc_hd__buf_2
*CAP
1 FrameStrobe_O[16] 0.000390845
2 *797:X 0.000390845
*RES
1 *797:X FrameStrobe_O[16] 10.53 
*END

*D_NET *29 0.000705679
*CONN
*P FrameStrobe_O[17] O
*I *798:X O *D sky130_fd_sc_hd__clkbuf_4
*CAP
1 FrameStrobe_O[17] 0.000352839
2 *798:X 0.000352839
*RES
1 *798:X FrameStrobe_O[17] 9.84 
*END

*D_NET *30 0.000783908
*CONN
*P FrameStrobe_O[18] O
*I *799:X O *D sky130_fd_sc_hd__clkbuf_4
*CAP
1 FrameStrobe_O[18] 0.000391954
2 *799:X 0.000391954
3 FrameStrobe_O[18] FrameStrobe_O[19] 0
*RES
1 *799:X FrameStrobe_O[18] 10.635 
*END

*D_NET *31 0.00136088
*CONN
*P FrameStrobe_O[19] O
*I *800:X O *D sky130_fd_sc_hd__clkbuf_4
*CAP
1 FrameStrobe_O[19] 0.000663046
2 *800:X 0.000663046
3 FrameStrobe_O[19] *712:A 3.47837e-05
4 FrameStrobe_O[19] *715:A 0
5 FrameStrobe_O[18] FrameStrobe_O[19] 0
*RES
1 *800:X FrameStrobe_O[19] 14.4 
*END

*D_NET *32 0.00123502
*CONN
*P FrameStrobe_O[1] O
*I *801:X O *D sky130_fd_sc_hd__clkbuf_4
*CAP
1 FrameStrobe_O[1] 0.000536518
2 *801:X 0.000536518
3 FrameStrobe_O[1] FrameStrobe_O[2] 0
4 FrameStrobe_O[1] *790:A 0.000161984
*RES
1 *801:X FrameStrobe_O[1] 12.705 
*END

*D_NET *33 0.000708907
*CONN
*P FrameStrobe_O[2] O
*I *802:X O *D sky130_fd_sc_hd__clkbuf_4
*CAP
1 FrameStrobe_O[2] 0.000354453
2 *802:X 0.000354453
3 FrameStrobe_O[1] FrameStrobe_O[2] 0
*RES
1 *802:X FrameStrobe_O[2] 9.84 
*END

*D_NET *34 0.000858817
*CONN
*P FrameStrobe_O[3] O
*I *803:X O *D sky130_fd_sc_hd__clkbuf_4
*CAP
1 FrameStrobe_O[3] 0.000429409
2 *803:X 0.000429409
*RES
1 *803:X FrameStrobe_O[3] 11.13 
*END

*D_NET *35 0.000943157
*CONN
*P FrameStrobe_O[4] O
*I *804:X O *D sky130_fd_sc_hd__clkbuf_4
*CAP