*SPEF "ieee 1481-1999"
*DESIGN "S_term_single"
*DATE "11:11:11 Fri 11 11, 1111"
*VENDOR "OpenRCX"
*PROGRAM "Parallel Extraction"
*VERSION "1.0"
*DESIGN_FLOW "NAME_SCOPE LOCAL" "PIN_CAP NONE"
*DIVIDER /
*DELIMITER :
*BUS_DELIMITER []
*T_UNIT 1 NS
*C_UNIT 1 PF
*R_UNIT 1 OHM
*L_UNIT 1 HENRY

*NAME_MAP
*1 net183
*2 FrameStrobe[0]
*3 FrameStrobe[10]
*4 FrameStrobe[11]
*5 FrameStrobe[12]
*6 FrameStrobe[13]
*7 FrameStrobe[14]
*8 FrameStrobe[15]
*9 FrameStrobe[16]
*10 FrameStrobe[17]
*11 FrameStrobe[18]
*12 FrameStrobe[19]
*13 FrameStrobe[1]
*14 FrameStrobe[2]
*15 FrameStrobe[3]
*16 FrameStrobe[4]
*17 FrameStrobe[5]
*18 FrameStrobe[6]
*19 FrameStrobe[7]
*20 FrameStrobe[8]
*21 FrameStrobe[9]
*22 FrameStrobe_O[0]
*23 FrameStrobe_O[10]
*24 FrameStrobe_O[11]
*25 FrameStrobe_O[12]
*26 FrameStrobe_O[13]
*27 FrameStrobe_O[14]
*28 FrameStrobe_O[15]
*29 FrameStrobe_O[16]
*30 FrameStrobe_O[17]
*31 FrameStrobe_O[18]
*32 FrameStrobe_O[19]
*33 FrameStrobe_O[1]
*34 FrameStrobe_O[2]
*35 FrameStrobe_O[3]
*36 FrameStrobe_O[4]
*37 FrameStrobe_O[5]
*38 FrameStrobe_O[6]
*39 FrameStrobe_O[7]
*40 FrameStrobe_O[8]
*41 FrameStrobe_O[9]
*42 N1BEG[0]
*43 N1BEG[1]
*44 N1BEG[2]
*45 N1BEG[3]
*46 N2BEG[0]
*47 N2BEG[1]
*48 N2BEG[2]
*49 N2BEG[3]
*50 N2BEG[4]
*51 N2BEG[5]
*52 N2BEG[6]
*53 N2BEG[7]
*54 N2BEGb[0]
*55 N2BEGb[1]
*56 N2BEGb[2]
*57 N2BEGb[3]
*58 N2BEGb[4]
*59 N2BEGb[5]
*60 N2BEGb[6]
*61 N2BEGb[7]
*62 N4BEG[0]
*63 N4BEG[10]
*64 N4BEG[11]
*65 N4BEG[12]
*66 N4BEG[13]
*67 N4BEG[14]
*68 N4BEG[15]
*69 N4BEG[1]
*70 N4BEG[2]
*71 N4BEG[3]
*72 N4BEG[4]
*73 N4BEG[5]
*74 N4BEG[6]
*75 N4BEG[7]
*76 N4BEG[8]
*77 N4BEG[9]
*78 NN4BEG[0]
*79 NN4BEG[10]
*80 NN4BEG[11]
*81 NN4BEG[12]
*82 NN4BEG[13]
*83 NN4BEG[14]
*84 NN4BEG[15]
*85 NN4BEG[1]
*86 NN4BEG[2]
*87 NN4BEG[3]
*88 NN4BEG[4]
*89 NN4BEG[5]
*90 NN4BEG[6]
*91 NN4BEG[7]
*92 NN4BEG[8]
*93 NN4BEG[9]
*94 S1END[0]
*95 S1END[1]
*96 S1END[2]
*97 S1END[3]
*98 S2END[0]
*99 S2END[1]
*100 S2END[2]
*101 S2END[3]
*102 S2END[4]
*103 S2END[5]
*104 S2END[6]
*105 S2END[7]
*106 S2MID[0]
*107 S2MID[1]
*108 S2MID[2]
*109 S2MID[3]
*110 S2MID[4]
*111 S2MID[5]
*112 S2MID[6]
*113 S2MID[7]
*114 S4END[0]
*115 S4END[10]
*116 S4END[11]
*117 S4END[12]
*118 S4END[13]
*119 S4END[14]
*120 S4END[15]
*121 S4END[1]
*122 S4END[2]
*123 S4END[3]
*124 S4END[4]
*125 S4END[5]
*126 S4END[6]
*127 S4END[7]
*128 S4END[8]
*129 S4END[9]
*130 SS4END[0]
*131 SS4END[10]
*132 SS4END[11]
*133 SS4END[12]
*134 SS4END[13]
*135 SS4END[14]
*136 SS4END[15]
*137 SS4END[1]
*138 SS4END[2]
*139 SS4END[3]
*140 SS4END[4]
*141 SS4END[5]
*142 SS4END[6]
*143 SS4END[7]
*144 SS4END[8]
*145 SS4END[9]
*146 UIO_BOT_UIN0
*147 UIO_BOT_UIN1
*148 UIO_BOT_UIN10
*149 UIO_BOT_UIN11
*150 UIO_BOT_UIN12
*151 UIO_BOT_UIN13
*152 UIO_BOT_UIN14
*153 UIO_BOT_UIN15
*154 UIO_BOT_UIN16
*155 UIO_BOT_UIN17
*156 UIO_BOT_UIN18
*157 UIO_BOT_UIN19
*158 UIO_BOT_UIN2
*159 UIO_BOT_UIN3
*160 UIO_BOT_UIN4
*161 UIO_BOT_UIN5
*162 UIO_BOT_UIN6
*163 UIO_BOT_UIN7
*164 UIO_BOT_UIN8
*165 UIO_BOT_UIN9
*166 UIO_BOT_UOUT0
*167 UIO_BOT_UOUT1
*168 UIO_BOT_UOUT10
*169 UIO_BOT_UOUT11
*170 UIO_BOT_UOUT12
*171 UIO_BOT_UOUT13
*172 UIO_BOT_UOUT14
*173 UIO_BOT_UOUT15
*174 UIO_BOT_UOUT16
*175 UIO_BOT_UOUT17
*176 UIO_BOT_UOUT18
*177 UIO_BOT_UOUT19
*178 UIO_BOT_UOUT2
*179 UIO_BOT_UOUT3
*180 UIO_BOT_UOUT4
*181 UIO_BOT_UOUT5
*182 UIO_BOT_UOUT6
*183 UIO_BOT_UOUT7
*184 UIO_BOT_UOUT8
*185 UIO_BOT_UOUT9
*186 UserCLK
*187 UserCLKo
*190 net1
*191 net10
*192 net100
*193 net101
*194 net102
*195 net103
*196 net104
*197 net105
*198 net106
*199 net107
*200 net108
*201 net109
*202 net11
*203 net110
*204 net111
*205 net112
*206 net113
*207 net114
*208 net115
*209 net116
*210 net117
*211 net118
*212 net119
*213 net12
*214 net120
*215 net121
*216 net122
*217 net123
*218 net124
*219 net125
*220 net126
*221 net127
*222 net128
*223 net129
*224 net13
*225 net130
*226 net131
*227 net132
*228 net133
*229 net134
*230 net135
*231 net136
*232 net137
*233 net138
*234 net139
*235 net14
*236 net140
*237 net141
*238 net142
*239 net143
*240 net144
*241 net145
*242 net146
*243 net147
*244 net148
*245 net149
*246 net15
*247 net150
*248 net151
*249 net152
*250 net153
*251 net154
*252 net155
*253 net156
*254 net157
*255 net158
*256 net159
*257 net16
*258 net160
*259 net161
*260 net162
*261 net163
*262 net164
*263 net165
*264 net166
*265 net167
*266 net168
*267 net169
*268 net17
*269 net170
*270 net171
*271 net172
*272 net173
*273 net174
*274 net175
*275 net176
*276 net177
*277 net178
*278 net179
*279 net18
*280 net180
*281 net181
*282 net182
*283 net19
*284 net2
*285 net20
*286 net21
*287 net22
*288 net23
*289 net24
*290 net25
*291 net26
*292 net27
*293 net28
*294 net29
*295 net3
*296 net30
*297 net31
*298 net32
*299 net33
*300 net34
*301 net35
*302 net36
*303 net37
*304 net38
*305 net39
*306 net4
*307 net40
*308 net41
*309 net42
*310 net43
*311 net44
*312 net45
*313 net46
*314 net47
*315 net48
*316 net49
*317 net5
*318 net50
*319 net51
*320 net52
*321 net53
*322 net54
*323 net55
*324 net56
*325 net57
*326 net58
*327 net59
*328 net6
*329 net60
*330 net61
*331 net62
*332 net63
*333 net64
*334 net65
*335 net66
*336 net67
*337 net68
*338 net69
*339 net7
*340 net70
*341 net71
*342 net72
*343 net73
*344 net74
*345 net75
*346 net76
*347 net77
*348 net78
*349 net79
*350 net8
*351 net80
*352 net81
*353 net82
*354 net83
*355 net84
*356 net85
*357 net86
*358 net87
*359 net88
*360 net89
*361 net9
*362 net90
*363 net91
*364 net92
*365 net93
*366 net94
*367 net95
*368 net96
*369 net97
*370 net98
*371 net99
*372 FILLER_0_0_10
*373 FILLER_0_0_101
*374 FILLER_0_0_105
*375 FILLER_0_0_111
*376 FILLER_0_0_116
*377 FILLER_0_0_121
*378 FILLER_0_0_125
*379 FILLER_0_0_129
*380 FILLER_0_0_133
*381 FILLER_0_0_137
*382 FILLER_0_0_141
*383 FILLER_0_0_145
*384 FILLER_0_0_149
*385 FILLER_0_0_153
*386 FILLER_0_0_157
*387 FILLER_0_0_161
*388 FILLER_0_0_167
*389 FILLER_0_0_172
*390 FILLER_0_0_177
*391 FILLER_0_0_181
*392 FILLER_0_0_185
*393 FILLER_0_0_189
*394 FILLER_0_0_193
*395 FILLER_0_0_197
*396 FILLER_0_0_201
*397 FILLER_0_0_205
*398 FILLER_0_0_209
*399 FILLER_0_0_213
*400 FILLER_0_0_217
*401 FILLER_0_0_22
*402 FILLER_0_0_223
*403 FILLER_0_0_228
*404 FILLER_0_0_233
*405 FILLER_0_0_237
*406 FILLER_0_0_241
*407 FILLER_0_0_245
*408 FILLER_0_0_249
*409 FILLER_0_0_253
*410 FILLER_0_0_257
*411 FILLER_0_0_261
*412 FILLER_0_0_265
*413 FILLER_0_0_269
*414 FILLER_0_0_273
*415 FILLER_0_0_279
*416 FILLER_0_0_284
*417 FILLER_0_0_289
*418 FILLER_0_0_29
*419 FILLER_0_0_293
*420 FILLER_0_0_297
*421 FILLER_0_0_3
*422 FILLER_0_0_301
*423 FILLER_0_0_305
*424 FILLER_0_0_309
*425 FILLER_0_0_313
*426 FILLER_0_0_317
*427 FILLER_0_0_321
*428 FILLER_0_0_325
*429 FILLER_0_0_332
*430 FILLER_0_0_349
*431 FILLER_0_0_35
*432 FILLER_0_0_356
*433 FILLER_0_0_365
*434 FILLER_0_0_372
*435 FILLER_0_0_380
*436 FILLER_0_0_388
*437 FILLER_0_0_405
*438 FILLER_0_0_412
*439 FILLER_0_0_421
*440 FILLER_0_0_428
*441 FILLER_0_0_436
*442 FILLER_0_0_444
*443 FILLER_0_0_461
*444 FILLER_0_0_468
*445 FILLER_0_0_472
*446 FILLER_0_0_57
*447 FILLER_0_0_61
*448 FILLER_0_0_75
*449 FILLER_0_0_81
*450 FILLER_0_0_85
*451 FILLER_0_0_89
*452 FILLER_0_0_93
*453 FILLER_0_0_97
*454 FILLER_0_1_103
*455 FILLER_0_1_111
*456 FILLER_0_1_113
*457 FILLER_0_1_125
*458 FILLER_0_1_129
*459 FILLER_0_1_13
*460 FILLER_0_1_141
*461 FILLER_0_1_153
*462 FILLER_0_1_167
*463 FILLER_0_1_169
*464 FILLER_0_1_177
*465 FILLER_0_1_18
*466 FILLER_0_1_189
*467 FILLER_0_1_201
*468 FILLER_0_1_213
*469 FILLER_0_1_221
*470 FILLER_0_1_225
*471 FILLER_0_1_237
*472 FILLER_0_1_252
*473 FILLER_0_1_260
*474 FILLER_0_1_266
*475 FILLER_0_1_270
*476 FILLER_0_1_274
*477 FILLER_0_1_284
*478 FILLER_0_1_290
*479 FILLER_0_1_302
*480 FILLER_0_1_314
*481 FILLER_0_1_326
*482 FILLER_0_1_334
*483 FILLER_0_1_337
*484 FILLER_0_1_350
*485 FILLER_0_1_362
*486 FILLER_0_1_369
*487 FILLER_0_1_381
*488 FILLER_0_1_389
*489 FILLER_0_1_393
*490 FILLER_0_1_40
*491 FILLER_0_1_405
*492 FILLER_0_1_417
*493 FILLER_0_1_429
*494 FILLER_0_1_441
*495 FILLER_0_1_447
*496 FILLER_0_1_449
*497 FILLER_0_1_50
*498 FILLER_0_1_57
*499 FILLER_0_1_69
*500 FILLER_0_1_7
*501 FILLER_0_1_81
*502 FILLER_0_1_93
*503 FILLER_0_2_109
*504 FILLER_0_2_121
*505 FILLER_0_2_133
*506 FILLER_0_2_139
*507 FILLER_0_2_141
*508 FILLER_0_2_15
*509 FILLER_0_2_153
*510 FILLER_0_2_161
*511 FILLER_0_2_166
*512 FILLER_0_2_178
*513 FILLER_0_2_190
*514 FILLER_0_2_197
*515 FILLER_0_2_209
*516 FILLER_0_2_221
*517 FILLER_0_2_233
*518 FILLER_0_2_245
*519 FILLER_0_2_251
*520 FILLER_0_2_253
*521 FILLER_0_2_265
*522 FILLER_0_2_27
*523 FILLER_0_2_277
*524 FILLER_0_2_281
*525 FILLER_0_2_29
*526 FILLER_0_2_293
*527 FILLER_0_2_3
*528 FILLER_0_2_305
*529 FILLER_0_2_309
*530 FILLER_0_2_321
*531 FILLER_0_2_329
*532 FILLER_0_2_333
*533 FILLER_0_2_345
*534 FILLER_0_2_356
*535 FILLER_0_2_365
*536 FILLER_0_2_377
*537 FILLER_0_2_389
*538 FILLER_0_2_401
*539 FILLER_0_2_41
*540 FILLER_0_2_413
*541 FILLER_0_2_419
*542 FILLER_0_2_421
*543 FILLER_0_2_433
*544 FILLER_0_2_445
*545 FILLER_0_2_457
*546 FILLER_0_2_469
*547 FILLER_0_2_53
*548 FILLER_0_2_65
*549 FILLER_0_2_77
*550 FILLER_0_2_83
*551 FILLER_0_2_85
*552 FILLER_0_2_97
*553 FILLER_0_3_105
*554 FILLER_0_3_113
*555 FILLER_0_3_119
*556 FILLER_0_3_130
*557 FILLER_0_3_138
*558 FILLER_0_3_15
*559 FILLER_0_3_153
*560 FILLER_0_3_165
*561 FILLER_0_3_169
*562 FILLER_0_3_176
*563 FILLER_0_3_180
*564 FILLER_0_3_199
*565 FILLER_0_3_203
*566 FILLER_0_3_207
*567 FILLER_0_3_211
*568 FILLER_0_3_217
*569 FILLER_0_3_223
*570 FILLER_0_3_225
*571 FILLER_0_3_237
*572 FILLER_0_3_249
*573 FILLER_0_3_261
*574 FILLER_0_3_27
*575 FILLER_0_3_273
*576 FILLER_0_3_278
*577 FILLER_0_3_281
*578 FILLER_0_3_293
*579 FILLER_0_3_3
*580 FILLER_0_3_305
*581 FILLER_0_3_317
*582 FILLER_0_3_329
*583 FILLER_0_3_335
*584 FILLER_0_3_337
*585 FILLER_0_3_349
*586 FILLER_0_3_361
*587 FILLER_0_3_388
*588 FILLER_0_3_39
*589 FILLER_0_3_393
*590 FILLER_0_3_405
*591 FILLER_0_3_416
*592 FILLER_0_3_420
*593 FILLER_0_3_424
*594 FILLER_0_3_428
*595 FILLER_0_3_432
*596 FILLER_0_3_444
*597 FILLER_0_3_449
*598 FILLER_0_3_461
*599 FILLER_0_3_51
*600 FILLER_0_3_55
*601 FILLER_0_3_57
*602 FILLER_0_3_69
*603 FILLER_0_3_81
*604 FILLER_0_3_90
*605 FILLER_0_3_99
*606 FILLER_0_4_15
*607 FILLER_0_4_195
*608 FILLER_0_4_197
*609 FILLER_0_4_219
*610 FILLER_0_4_223
*611 FILLER_0_4_233
*612 FILLER_0_4_246
*613 FILLER_0_4_250
*614 FILLER_0_4_27
*615 FILLER_0_4_271
*616 FILLER_0_4_275
*617 FILLER_0_4_287
*618 FILLER_0_4_29
*619 FILLER_0_4_3
*620 FILLER_0_4_300
*621 FILLER_0_4_306
*622 FILLER_0_4_309
*623 FILLER_0_4_314
*624 FILLER_0_4_322
*625 FILLER_0_4_326
*626 FILLER_0_4_333
*627 FILLER_0_4_337
*628 FILLER_0_4_341
*629 FILLER_0_4_348
*630 FILLER_0_4_356
*631 FILLER_0_4_363
*632 FILLER_0_4_365
*633 FILLER_0_4_41
*634 FILLER_0_4_442
*635 FILLER_0_4_448
*636 FILLER_0_4_460
*637 FILLER_0_4_47
*638 FILLER_0_4_472
*639 FILLER_0_4_85
*640 FILLER_0_5_141
*641 FILLER_0_5_15
*642 FILLER_0_5_169
*643 FILLER_0_5_197
*644 FILLER_0_5_216
*645 FILLER_0_5_27
*646 FILLER_0_5_29
*647 FILLER_0_5_3
*648 FILLER_0_5_305
*649 FILLER_0_5_309
*650 FILLER_0_5_389
*651 FILLER_0_5_41
*652 FILLER_0_5_417
*653 FILLER_0_5_439
*654 FILLER_0_5_447
*655 FILLER_0_5_449
*656 FILLER_0_5_461
*657 FILLER_0_5_57
*658 FILLER_0_5_85
*659 PHY_0
*660 PHY_1
*661 PHY_10
*662 PHY_11
*663 PHY_2
*664 PHY_3
*665 PHY_4
*666 PHY_5
*667 PHY_6
*668 PHY_7
*669 PHY_8
*670 PHY_9
*671 S_term_single_183
*672 TAP_12
*673 TAP_13
*674 TAP_14
*675 TAP_15
*676 TAP_16
*677 TAP_17
*678 TAP_18
*679 TAP_19
*680 TAP_20
*681 TAP_21
*682 TAP_22
*683 TAP_23
*684 TAP_24
*685 TAP_25
*686 TAP_26
*687 TAP_27
*688 TAP_28
*689 TAP_29
*690 TAP_30
*691 TAP_31
*692 TAP_32
*693 TAP_33
*694 TAP_34
*695 TAP_35
*696 TAP_36
*697 TAP_37
*698 TAP_38
*699 TAP_39
*700 TAP_40
*701 TAP_41
*702 TAP_42
*703 TAP_43
*704 TAP_44
*705 TAP_45
*706 TAP_46
*707 TAP_47
*708 TAP_48
*709 TAP_49
*710 TAP_50
*711 TAP_51
*712 TAP_52
*713 TAP_53
*714 TAP_54
*715 TAP_55
*716 TAP_56
*717 TAP_57
*718 TAP_58
*719 TAP_59
*720 TAP_60
*721 TAP_61
*722 TAP_62
*723 TAP_63
*724 TAP_64
*725 TAP_65
*726 TAP_66
*727 TAP_67
*728 TAP_68
*729 TAP_69
*730 TAP_70
*731 TAP_71
*732 TAP_72
*733 TAP_73
*734 TAP_74
*735 TAP_75
*736 _01_
*737 _02_
*738 _03_
*739 _04_
*740 _05_
*741 _06_
*742 _07_
*743 _08_
*744 _09_
*745 _10_
*746 _11_
*747 _12_
*748 _13_
*749 _14_
*750 _15_
*751 _16_
*752 _17_
*753 _18_
*754 _19_
*755 _20_
*756 _21_
*757 _22_
*758 _23_
*759 _24_
*760 _25_
*761 _26_
*762 _27_
*763 _28_
*764 _29_
*765 _30_
*766 _31_
*767 _32_
*768 _33_
*769 _34_
*770 _35_
*771 _36_
*772 _37_
*773 _38_
*774 _39_
*775 _40_
*776 _41_
*777 _42_
*778 _43_
*779 _44_
*780 _45_
*781 _46_
*782 _47_
*783 _48_
*784 _49_
*785 _50_
*786 _51_
*787 _52_
*788 _53_
*789 _54_
*790 _55_
*791 _56_
*792 _57_
*793 _58_
*794 _59_
*795 _60_
*796 _61_
*797 _62_
*798 _63_
*799 _64_
*800 _65_
*801 _66_
*802 _67_
*803 _68_
*804 _69_
*805 _70_
*806 _71_
*807 _72_
*808 _73_
*809 _74_
*810 _75_
*811 _76_
*812 _77_
*813 _78_
*814 _79_
*815 _80_
*816 _81_
*817 _82_
*818 _83_
*819 _84_
*820 _85_
*821 _86_
*822 _87_
*823 _88_
*824 _89_
*825 _90_
*826 _91_
*827 _92_
*828 _93_
*829 input1
*830 input10
*831 input11
*832 input12
*833 input13
*834 input14
*835 input15
*836 input16
*837 input17
*838 input18
*839 input19
*840 input2
*841 input20
*842 input21
*843 input22
*844 input23
*845 input24
*846 input25
*847 input26
*848 input27
*849 input28
*850 input29
*851 input3
*852 input30
*853 input31
*854 input32
*855 input33
*856 input34
*857 input35
*858 input36
*859 input37
*860 input38
*861 input39
*862 input4
*863 input40
*864 input41
*865 input42
*866 input43
*867 input44
*868 input45
*869 input46
*870 input47
*871 input48
*872 input49
*873 input5
*874 input50
*875 input51
*876 input52
*877 input53
*878 input54
*879 input55
*880 input56
*881 input57
*882 input58
*883 input59
*884 input6
*885 input60
*886 input61
*887 input62
*888 input63
*889 input64
*890 input65
*891 input66
*892 input67
*893 input68
*894 input69
*895 input7
*896 input70
*897 input71
*898 input72
*899 input73
*900 input74
*901 input75
*902 input76
*903 input77
*904 input78
*905 input79
*906 input8
*907 input80
*908 input81
*909 input82
*910 input83
*911 input84
*912 input85
*913 input86
*914 input87
*915 input88
*916 input89
*917 input9
*918 output100
*919 output101
*920 output102
*921 output103
*922 output104
*923 output105
*924 output106
*925 output107
*926 output108
*927 output109
*928 output110
*929 output111
*930 output112
*931 output113
*932 output114
*933 output115
*934 output116
*935 output117
*936 output118
*937 output119
*938 output120
*939 output121
*940 output122
*941 output123
*942 output124
*943 output125
*944 output126
*945 output127
*946 output128
*947 output129
*948 output130
*949 output131
*950 output132
*951 output133
*952 output134
*953 output135
*954 output136
*955 output137
*956 output138
*957 output139
*958 output140
*959 output141
*960 output142
*961 output143
*962 output144
*963 output145
*964 output146
*965 output147
*966 output148
*967 output149
*968 output150
*969 output151
*970 output152
*971 output153
*972 output154
*973 output155
*974 output156
*975 output157
*976 output158
*977 output159
*978 output160
*979 output161
*980 output162
*981 output163
*982 output164
*983 output165
*984 output166
*985 output167
*986 output168
*987 output169
*988 output170
*989 output171
*990 output172
*991 output173
*992 output174
*993 output175
*994 output176
*995 output177
*996 output178
*997 output179
*998 output180
*999 output181
*1000 output182
*1001 output90
*1002 output91
*1003 output92
*1004 output93
*1005 output94
*1006 output95
*1007 output96
*1008 output97
*1009 output98
*1010 output99

*PORTS
Co O
FrameStrobe[0] I
FrameStrobe[10] I
FrameStrobe[11] I
FrameStrobe[12] I
FrameStrobe[13] I
FrameStrobe[14] I
FrameStrobe[15] I
FrameStrobe[16] I
FrameStrobe[17] I
FrameStrobe[18] I
FrameStrobe[19] I
FrameStrobe[1] I
FrameStrobe[2] I
FrameStrobe[3] I
FrameStrobe[4] I
FrameStrobe[5] I
FrameStrobe[6] I
FrameStrobe[7] I
FrameStrobe[8] I
FrameStrobe[9] I
FrameStrobe_O[0] O
FrameStrobe_O[10] O
FrameStrobe_O[11] O
FrameStrobe_O[12] O
FrameStrobe_O[13] O
FrameStrobe_O[14] O
FrameStrobe_O[15] O
FrameStrobe_O[16] O
FrameStrobe_O[17] O
FrameStrobe_O[18] O
FrameStrobe_O[19] O
FrameStrobe_O[1] O
FrameStrobe_O[2] O
FrameStrobe_O[3] O
FrameStrobe_O[4] O
FrameStrobe_O[5] O
FrameStrobe_O[6] O
FrameStrobe_O[7] O
FrameStrobe_O[8] O
FrameStrobe_O[9] O
N1BEG[0] O
N1BEG[1] O
N1BEG[2] O
N1BEG[3] O
N2BEG[0] O
N2BEG[1] O
N2BEG[2] O
N2BEG[3] O
N2BEG[4] O
N2BEG[5] O
N2BEG[6] O
N2BEG[7] O
N2BEGb[0] O
N2BEGb[1] O
N2BEGb[2] O
N2BEGb[3] O
N2BEGb[4] O
N2BEGb[5] O
N2BEGb[6] O
N2BEGb[7] O
N4BEG[0] O
N4BEG[10] O
N4BEG[11] O
N4BEG[12] O
N4BEG[13] O
N4BEG[14] O
N4BEG[15] O
N4BEG[1] O
N4BEG[2] O
N4BEG[3] O
N4BEG[4] O
N4BEG[5] O
N4BEG[6] O
N4BEG[7] O
N4BEG[8] O
N4BEG[9] O
NN4BEG[0] O
NN4BEG[10] O
NN4BEG[11] O
NN4BEG[12] O
NN4BEG[13] O
NN4BEG[14] O
NN4BEG[15] O
NN4BEG[1] O
NN4BEG[2] O
NN4BEG[3] O
NN4BEG[4] O
NN4BEG[5] O
NN4BEG[6] O
NN4BEG[7] O
NN4BEG[8] O
NN4BEG[9] O
S1END[0] I
S1END[1] I
S1END[2] I
S1END[3] I
S2END[0] I
S2END[1] I
S2END[2] I
S2END[3] I
S2END[4] I
S2END[5] I
S2END[6] I
S2END[7] I
S2MID[0] I
S2MID[1] I
S2MID[2] I
S2MID[3] I
S2MID[4] I
S2MID[5] I
S2MID[6] I
S2MID[7] I
S4END[0] I
S4END[10] I
S4END[11] I
S4END[12] I
S4END[13] I
S4END[14] I
S4END[15] I
S4END[1] I
S4END[2] I
S4END[3] I
S4END[4] I
S4END[5] I
S4END[6] I
S4END[7] I
S4END[8] I
S4END[9] I
SS4END[0] I
SS4END[10] I
SS4END[11] I
SS4END[12] I
SS4END[13] I
SS4END[14] I
SS4END[15] I
SS4END[1] I
SS4END[2] I
SS4END[3] I
SS4END[4] I
SS4END[5] I
SS4END[6] I
SS4END[7] I
SS4END[8] I
SS4END[9] I
UIO_BOT_UIN0 I
UIO_BOT_UIN1 I
UIO_BOT_UIN10 I
UIO_BOT_UIN11 I
UIO_BOT_UIN12 I
UIO_BOT_UIN13 I
UIO_BOT_UIN14 I
UIO_BOT_UIN15 I
UIO_BOT_UIN16 I
UIO_BOT_UIN17 I
UIO_BOT_UIN18 I
UIO_BOT_UIN19 I
UIO_BOT_UIN2 I
UIO_BOT_UIN3 I
UIO_BOT_UIN4 I
UIO_BOT_UIN5 I
UIO_BOT_UIN6 I
UIO_BOT_UIN7 I
UIO_BOT_UIN8 I
UIO_BOT_UIN9 I
UIO_BOT_UOUT0 O
UIO_BOT_UOUT1 O
UIO_BOT_UOUT10 O
UIO_BOT_UOUT11 O
UIO_BOT_UOUT12 O
UIO_BOT_UOUT13 O
UIO_BOT_UOUT14 O
UIO_BOT_UOUT15 O
UIO_BOT_UOUT16 O
UIO_BOT_UOUT17 O
UIO_BOT_UOUT18 O
UIO_BOT_UOUT19 O
UIO_BOT_UOUT2 O
UIO_BOT_UOUT3 O
UIO_BOT_UOUT4 O
UIO_BOT_UOUT5 O
UIO_BOT_UOUT6 O
UIO_BOT_UOUT7 O
UIO_BOT_UOUT8 O
UIO_BOT_UOUT9 O
UserCLK I
UserCLKo O

*D_NET *1 0.00167187
*CONN
*P Co O
*I *671:LO O *D sky130_fd_sc_hd__conb_1
*CAP
1 Co 0.000506201
2 *671:LO 0.000506201
3 Co FrameStrobe_O[0] 0.000496136
4 Co FrameStrobe_O[1] 0
5 Co UserCLKo 2.84625e-05
6 Co *825:A 6.29853e-05
7 Co *883:A 0
8 Co *1000:A 7.18805e-05
*RES
1 *671:LO Co 15.96 
*END

*D_NET *2 0.00124523
*CONN
*P FrameStrobe[0] I
*I *829:A I *D sky130_fd_sc_hd__clkbuf_2
*CAP
1 FrameStrobe[0] 0.000447953
2 *829:A 0.000447953
3 *829:A *832:A 0
4 *829:A *916:A 0
5 *829:A *360:10 0.000349324
*RES
1 FrameStrobe[0] *829:A 12.99 
*END

*D_NET *3 0.00113518
*CONN
*P FrameStrobe[10] I
*I *840:A I *D sky130_fd_sc_hd__buf_1
*CAP
1 FrameStrobe[10] 0.000527354
2 *840:A 0.000527354
3 *840:A *740:A 0
4 *840:A *841:A 0
5 *840:A *851:A 0
6 *840:A *284:26 8.04736e-05
*RES
1 FrameStrobe[10] *840:A 12.9 
*END

*D_NET *4 0.00112601
*CONN
*P FrameStrobe[11] I
*I *851:A I *D sky130_fd_sc_hd__clkbuf_1
*CAP
1 FrameStrobe[11] 0.000563004
2 *851:A 0.000563004
3 *851:A *862:A 0
4 *851:A *284:26 0
5 *840:A *851:A 0
*RES
1 FrameStrobe[11] *851:A 12.9 
*END

*D_NET *5 0.00112859
*CONN
*P FrameStrobe[12] I
*I *862:A I *D sky130_fd_sc_hd__clkbuf_1
*CAP
1 FrameStrobe[12] 0.000564295
2 *862:A 0.000564295
3 *851:A *862:A 0
*RES
1 FrameStrobe[12] *862:A 12.9 
*END

*D_NET *6 0.0012872
*CONN
*P FrameStrobe[13] I
*I *873:A I *D sky130_fd_sc_hd__clkbuf_1
*CAP
1 FrameStrobe[13] 0.000485767
2 *873:A 0.000485767
3 *873:A *884:A 0.000315665
*RES
1 FrameStrobe[13] *873:A 13.935 
*END

*D_NET *7 0.00128074
*CONN
*P FrameStrobe[14] I
*I *884:A I *D sky130_fd_sc_hd__clkbuf_1
*CAP
1 FrameStrobe[14] 0.000482537
2 *884:A 0.000482537
3 *884:A *895:A 0
4 *873:A *884:A 0.000315665
*RES
1 FrameStrobe[14] *884:A 13.695 
*END

*D_NET *8 0.00121935
*CONN
*P FrameStrobe[15] I
*I *895:A I *D sky130_fd_sc_hd__clkbuf_1
*CAP
1 FrameStrobe[15] 0.000520125
2 *895:A 0.000520125
3 *895:A *772:A 0.000179105
4 *895:A *906:A 0
5 *884:A *895:A 0
*RES
1 FrameStrobe[15] *895:A 12.9 
*END

*D_NET *9 0.00113578
*CONN
*P FrameStrobe[16] I
*I *906:A I *D sky130_fd_sc_hd__clkbuf_1
*CAP
1 FrameStrobe[16] 0.000567891
2 *906:A 0.000567891
3 *906:A *772:A 0
4 *906:A *917:A 0
5 *895:A *906:A 0
*RES
1 FrameStrobe[16] *906:A 12.9 
*END

*D_NET *10 0.001137
*CONN
*P FrameStrobe[17] I
*I *917:A I *D sky130_fd_sc_hd__clkbuf_1
*CAP
1 FrameStrobe[17] 0.000568501
2 *917:A 0.000568501
3 *917:A *830:A 0
4 *906:A *917:A 0
*RES
1 FrameStrobe[17] *917:A 12.9 
*END

*D_NET *11 0.001137
*CONN
*P FrameStrobe[18] I
*I *830:A I *D sky130_fd_sc_hd__clkbuf_1
*CAP
1 FrameStrobe[18] 0.000568501
2 *830:A 0.000568501
3 *830:A *831:A 0
4 *830:A *344:34 0
5 *917:A *830:A 0
*RES
1 FrameStrobe[18] *830:A 12.9 
*END

*D_NET *12 0.00118656
*CONN
*P FrameStrobe[19] I
*I *831:A I *D sky130_fd_sc_hd__clkbuf_1
*CAP
1 FrameStrobe[19] 0.000521935
2 *831:A 0.000521935
3 *831:A *894:A 0
4 *831:A *344:34 6.14983e-05
5 *831:A *346:18 8.11963e-05
6 *830:A *831:A 0
*RES
1 FrameStrobe[19] *831:A 12.9 
*END

*D_NET *13 0.00136422
*CONN
*P FrameStrobe[1] I
*I *832:A I *D sky130_fd_sc_hd__clkbuf_2
*CAP
1 FrameStrobe[1] 0.000682108
2 *832:A 0.000682108
3 *832:A *833:A 0
4 *832:A *190:12 0
5 *832:A *360:10 0
6 *829:A *832:A 0
*RES
1 FrameStrobe[1] *832:A 15.54 
*END

*D_NET *14 0.00119922
*CONN
*P FrameStrobe[2] I
*I *833:A I *D sky130_fd_sc_hd__clkbuf_2
*CAP
1 FrameStrobe[2] 0.000493331
2 *833:A 0.000493331
3 *833:A *834:A 0
4 *833:A *224:10 0.000212556
5 *832:A *833:A 0
*RES
1 FrameStrobe[2] *833:A 13.68 
*END

*D_NET *15 0.00132503
*CONN
*P FrameStrobe[3] I
*I *834:A I *D sky130_fd_sc_hd__dlymetal6s2s_1
*CAP
1 FrameStrobe[3] 0.000584555
2 *834:A 0.000584555
3 *834:A *828:A 0
4 *834:A *835:A 0
5 *834:A *224:10 0.000155917
6 *833:A *834:A 0
*RES
1 FrameStrobe[3] *834:A 14.94 
*END

*D_NET *16 0.00106104
*CONN
*P FrameStrobe[4] I
*I *835:A I *D sky130_fd_sc_hd__dlymetal6s2s_1
*CAP
1 FrameStrobe[4] 0.00053052
2 *835:A 0.00053052
3 *834:A *835:A 0
*RES
1 FrameStrobe[4] *835:A 12.9 
*END

*D_NET *17 0.00147472
*CONN
*P FrameStrobe[5] I
*I *836:A I *D sky130_fd_sc_hd__clkbuf_2
*CAP
1 FrameStrobe[5] 0.000576964
2 *836:A 0.000576964
3 *836:A *837:A 0
4 *836:A *257:10 0.000320796
*RES
1 FrameStrobe[5] *836:A 15.54 
*END

*D_NET *18 0.00111619
*CONN
*P FrameStrobe[6] I
*I *837:A I *D sky130_fd_sc_hd__dlymetal6s2s_1
*CAP
1 FrameStrobe[6] 0.000554779
2 *837:A 0.000554779
3 *837:A *737:A 6.63219e-06
4 *837:A *838:A 0
5 *837:A *257:10 0
6 *836:A *837:A 0
*RES
1 FrameStrobe[6] *837:A 13.245 
*END

*D_NET *19 0.00109543
*CONN
*P FrameStrobe[7] I
*I *838:A I *D sky130_fd_sc_hd__dlymetal6s2s_1
*CAP
1 FrameStrobe[7] 0.000497667
2 *838:A 0.000497667
3 *838:A *738:A 0.000100099
4 *838:A *839:A 0
5 *837:A *838:A 0
*RES
1 FrameStrobe[7] *838:A 12.9 
*END

*D_NET *20 0.00119219
*CONN
*P FrameStrobe[8] I
*I *839:A I *D sky130_fd_sc_hd__buf_1
*CAP
1 FrameStrobe[8] 0.000575826
2 *839:A 0.000575826
3 *839:A *738:A 0
4 *839:A *841:A 0
5 *839:A *283:12 4.05358e-05
6 *838:A *839:A 0
*RES
1 FrameStrobe[8] *839:A 13.59 
*END

*D_NET *21 0.00110805
*CONN
*P FrameStrobe[9] I
*I *841:A I *D sky130_fd_sc_hd__buf_1
*CAP
1 FrameStrobe[9] 0.000519088
2 *841:A 0.000519088
3 *841:A *740:A 4.10914e-05
4 *841:A *283:12 2.87867e-05
5 *839:A *841:A 0
6 *840:A *841:A 0
*RES
1 FrameStrobe[9] *841:A 12.9 
*END

*D_NET *22 0.00183576
*CONN
*P FrameStrobe_O[0] O
*I *1001:X O *D sky130_fd_sc_hd__clkbuf_4
*CAP
1 FrameStrobe_O[0] 0.000492375
2 *1001:X 0.000492375
3 FrameStrobe_O[0] FrameStrobe_O[1] 0
4 FrameStrobe_O[0] *825:A 0.000268996
5 FrameStrobe_O[0] *827:A 2.42236e-05
6 FrameStrobe_O[0] *919:A 3.24611e-05
7 FrameStrobe_O[0] *927:A 2.91987e-05
8 Co FrameStrobe_O[0] 0.000496136
*RES
1 *1001:X FrameStrobe_O[0] 15.3 
*END

*D_NET *23 0.00241822
*CONN
*P FrameStrobe_O[10] O
*I *1002:X O *D sky130_fd_sc_hd__clkbuf_4
*CAP
1 FrameStrobe_O[10] 0.000648607
2 *1002:X 0.000648607
3 FrameStrobe_O[10] FrameStrobe_O[11] 0
4 FrameStrobe_O[10] FrameStrobe_O[12] 0
5 FrameStrobe_O[10] FrameStrobe_O[8] 4.99619e-05
6 FrameStrobe_O[10] FrameStrobe_O[9] 0.000961785
7 FrameStrobe_O[10] *1002:A 6.05513e-05
8 FrameStrobe_O[10] *1003:A 3.53774e-05
9 FrameStrobe_O[10] *1004:A 1.33293e-05
*RES
1 *1002:X FrameStrobe_O[10] 17.685 
*END

*D_NET *24 0.00258291
*CONN
*P FrameStrobe_O[11] O
*I *1003:X O *D sky130_fd_sc_hd__clkbuf_4
*CAP
1 FrameStrobe_O[11] 0.00068043
2 *1003:X 0.00068043
3 FrameStrobe_O[11] FrameStrobe_O[12] 0.000877524
4 FrameStrobe_O[11] FrameStrobe_O[14] 0
5 FrameStrobe_O[11] FrameStrobe_O[9] 0
6 FrameStrobe_O[11] *927:A 0.000124007
7 FrameStrobe_O[11] *1003:A 2.32597e-05
8 FrameStrobe_O[11] *1006:A 0.000197264
9 FrameStrobe_O[10] FrameStrobe_O[11] 0
*RES
1 *1003:X FrameStrobe_O[11] 17.82 
*END

*D_NET *25 0.00246038
*CONN
*P FrameStrobe_O[12] O
*I *1004:X O *D sky130_fd_sc_hd__clkbuf_4
*CAP
1 FrameStrobe_O[12] 0.000482102
2 *1004:X 0.000482102
3 FrameStrobe_O[12] FrameStrobe_O[13] 0.000556615
4 FrameStrobe_O[12] *1003:A 3.53774e-05
5 FrameStrobe_O[12] *1004:A 2.66586e-05
6 FrameStrobe_O[10] FrameStrobe_O[12] 0
7 FrameStrobe_O[11] FrameStrobe_O[12] 0.000877524
*RES
1 *1004:X FrameStrobe_O[12] 17.79 
*END

*D_NET *26 0.002213
*CONN
*P FrameStrobe_O[13] O
*I *1005:X O *D sky130_fd_sc_hd__clkbuf_4
*CAP
1 FrameStrobe_O[13] 0.000686754
2 *1005:X 0.000686754
3 FrameStrobe_O[13] FrameStrobe_O[14] 0
4 FrameStrobe_O[13] *1003:A 0
5 FrameStrobe_O[13] *1004:A 3.72916e-05
6 FrameStrobe_O[13] *1006:A 0.000159575
7 FrameStrobe_O[13] *1009:A 8.60072e-05
8 FrameStrobe_O[12] FrameStrobe_O[13] 0.000556615
*RES
1 *1005:X FrameStrobe_O[13] 19.335 
*END

*D_NET *27 0.00267154
*CONN
*P FrameStrobe_O[14] O
*I *1006:X O *D sky130_fd_sc_hd__clkbuf_4
*CAP
1 FrameStrobe_O[14] 0.000821742
2 *1006:X 0.000821742
3 FrameStrobe_O[14] FrameStrobe_O[15] 0.000941241
4 FrameStrobe_O[14] FrameStrobe_O[16] 3.52139e-06
5 FrameStrobe_O[14] FrameStrobe_O[18] 4.05674e-06
6 FrameStrobe_O[14] *1006:A 7.92424e-05
7 FrameStrobe_O[11] FrameStrobe_O[14] 0
8 FrameStrobe_O[13] FrameStrobe_O[14] 0
*RES
1 *1006:X FrameStrobe_O[14] 19.545 
*END

*D_NET *28 0.00258123
*CONN
*P FrameStrobe_O[15] O
*I *1007:X O *D sky130_fd_sc_hd__clkbuf_4
*CAP
1 FrameStrobe_O[15] 0.000751693
2 *1007:X 0.000751693
3 FrameStrobe_O[15] FrameStrobe_O[16] 0
4 FrameStrobe_O[15] FrameStrobe_O[17] 0.000122571
5 FrameStrobe_O[15] *1009:A 1.40358e-05
6 FrameStrobe_O[14] FrameStrobe_O[15] 0.000941241
*RES
1 *1007:X FrameStrobe_O[15] 19.275 
*END

*D_NET *29 0.00231569
*CONN
*P FrameStrobe_O[16] O
*I *1008:X O *D sky130_fd_sc_hd__clkbuf_4
*CAP
1 FrameStrobe_O[16] 0.000732179
2 *1008:X 0.000732179
3 FrameStrobe_O[16] FrameStrobe_O[17] 0.000495044
4 FrameStrobe_O[16] FrameStrobe_O[18] 0.000230429
5 FrameStrobe_O[16] *1006:A 0.000122337
6 FrameStrobe_O[14] FrameStrobe_O[16] 3.52139e-06
7 FrameStrobe_O[15] FrameStrobe_O[16] 0
*RES
1 *1008:X FrameStrobe_O[16] 18.375 
*END

*D_NET *30 0.00292717
*CONN
*P FrameStrobe_O[17] O
*I *1009:X O *D sky130_fd_sc_hd__clkbuf_4
*CAP
1 FrameStrobe_O[17] 0.000459996
2 *1009:X 0.000459996
3 FrameStrobe_O[17] FrameStrobe_O[18] 0.000864081
4 FrameStrobe_O[17] FrameStrobe_O[19] 0.000198051
5 FrameStrobe_O[17] *819:A 0.000303755
6 FrameStrobe_O[17] *1009:A 2.36716e-05
7 FrameStrobe_O[15] FrameStrobe_O[17] 0.000122571
8 FrameStrobe_O[16] FrameStrobe_O[17] 0.000495044
*RES
1 *1009:X FrameStrobe_O[17] 20.235 
*END

*D_NET *31 0.00269857
*CONN
*P FrameStrobe_O[18] O
*I *1010:X O *D sky130_fd_sc_hd__clkbuf_4
*CAP
1 FrameStrobe_O[18] 0.000491023
2 *1010:X 0.000491023
3 FrameStrobe_O[18] FrameStrobe_O[19] 0.00037849
4 FrameStrobe_O[18] *819:A 3.79555e-05
5 FrameStrobe_O[18] *1010:A 0.000201508
6 FrameStrobe_O[14] FrameStrobe_O[18] 4.05674e-06
7 FrameStrobe_O[16] FrameStrobe_O[18] 0.000230429
8 FrameStrobe_O[17] FrameStrobe_O[18] 0.000864081
*RES
1 *1010:X FrameStrobe_O[18] 18.885 
*END

*D_NET *32 0.00256901
*CONN
*P FrameStrobe_O[19] O
*I *918:X O *D sky130_fd_sc_hd__clkbuf_4
*CAP
1 FrameStrobe_O[19] 0.000665969
2 *918:X 0.000665969
3 FrameStrobe_O[19] *819:A 0.000305427
4 FrameStrobe_O[19] *918:A 0.000355108
5 FrameStrobe_O[17] FrameStrobe_O[19] 0.000198051
6 FrameStrobe_O[18] FrameStrobe_O[19] 0.00037849
*RES
1 *918:X FrameStrobe_O[19] 19.065 
*END

*D_NET *33 0.00181507
*CONN
*P FrameStrobe_O[1] O
*I *919:X O *D sky130_fd_sc_hd__clkbuf_4
*CAP
1 FrameStrobe_O[1] 0.000607126
2 *919:X 0.000607126
3 FrameStrobe_O[1] FrameStrobe_O[2] 0.000493237
4 FrameStrobe_O[1] *827:A 0
5 FrameStrobe_O[1] *919:A 9.13951e-05
6 FrameStrobe_O[1] *920:A 1.61831e-05
7 Co FrameStrobe_O[1] 0
8 FrameStrobe_O[0] FrameStrobe_O[1] 0
*RES
1 *919:X FrameStrobe_O[1] 16.65 
*END

*D_NET *34 0.00288792
*CONN
*P FrameStrobe_O[2] O
*I *920:X O *D sky130_fd_sc_hd__clkbuf_4
*CAP
1 FrameStrobe_O[2] 0.000520183
2 *920:X 0.000520183
3 FrameStrobe_O[2] FrameStrobe_O[3] 0.000980344
4 FrameStrobe_O[2] FrameStrobe_O[5] 0
5 FrameStrobe_O[2] *827:A 0
6 FrameStrobe_O[2] *920:A 2.43791e-05
7 FrameStrobe_O[2] *927:A 0.000349592
8 FrameStrobe_O[2] *1001:A 0
9 FrameStrobe_O[1] FrameStrobe_O[2] 0.000493237
*RES
1 *920:X FrameStrobe_O[2] 18.75 
*END

*D_NET *35 0.00223017
*CONN
*P FrameStrobe_O[3] O
*I *921:X O *D sky130_fd_sc_hd__clkbuf_4
*CAP
1 FrameStrobe_O[3] 0.000449917
2 *921:X 0.000449917
3 FrameStrobe_O[3] FrameStrobe_O[4] 0.000266411
4 FrameStrobe_O[3] *920:A 2.46007e-05
5 FrameStrobe_O[3] *1002:A 5.89814e-05
6 FrameStrobe_O[2] FrameStrobe_O[3] 0.000980344
*RES
1 *921:X FrameStrobe_O[3] 16.65 
*END

*D_NET *36 0.00196114
*CONN
*P FrameStrobe_O[4] O
*I *922:X O *D sky130_fd_sc_hd__clkbuf_4
*CAP
1 FrameStrobe_O[4] 0.000751892
2 *922:X 0.000751892
3 FrameStrobe_O[4] FrameStrobe_O[5] 0
4 FrameStrobe_O[4] FrameStrobe_O[6] 4.82863e-05
5 FrameStrobe_O[4] *920:A 0
6 FrameStrobe_O[4] *923:A 0
7 FrameStrobe_O[4] *1002:A 0.000142661
8 FrameStrobe_O[3] FrameStrobe_O[4] 0.000266411
*RES
1 *922:X FrameStrobe_O[4] 18.495 
*END

*D_NET *37 0.00258269
*CONN
*P FrameStrobe_O[5] O
*I *923:X O *D sky130_fd_sc_hd__clkbuf_4
*CAP