*SPEF "ieee 1481-1999"
*DESIGN "S_term_single"
*DATE "11:11:11 Fri 11 11, 1111"
*VENDOR "OpenRCX"
*PROGRAM "Parallel Extraction"
*VERSION "1.0"
*DESIGN_FLOW "NAME_SCOPE LOCAL" "PIN_CAP NONE"
*DIVIDER /
*DELIMITER :
*BUS_DELIMITER []
*T_UNIT 1 NS
*C_UNIT 1 PF
*R_UNIT 1 OHM
*L_UNIT 1 HENRY

*NAME_MAP
*1 net183
*2 FrameStrobe[0]
*3 FrameStrobe[10]
*4 FrameStrobe[11]
*5 FrameStrobe[12]
*6 FrameStrobe[13]
*7 FrameStrobe[14]
*8 FrameStrobe[15]
*9 FrameStrobe[16]
*10 FrameStrobe[17]
*11 FrameStrobe[18]
*12 FrameStrobe[19]
*13 FrameStrobe[1]
*14 FrameStrobe[2]
*15 FrameStrobe[3]
*16 FrameStrobe[4]
*17 FrameStrobe[5]
*18 FrameStrobe[6]
*19 FrameStrobe[7]
*20 FrameStrobe[8]
*21 FrameStrobe[9]
*22 FrameStrobe_O[0]
*23 FrameStrobe_O[10]
*24 FrameStrobe_O[11]
*25 FrameStrobe_O[12]
*26 FrameStrobe_O[13]
*27 FrameStrobe_O[14]
*28 FrameStrobe_O[15]
*29 FrameStrobe_O[16]
*30 FrameStrobe_O[17]
*31 FrameStrobe_O[18]
*32 FrameStrobe_O[19]
*33 FrameStrobe_O[1]
*34 FrameStrobe_O[2]
*35 FrameStrobe_O[3]
*36 FrameStrobe_O[4]
*37 FrameStrobe_O[5]
*38 FrameStrobe_O[6]
*39 FrameStrobe_O[7]
*40 FrameStrobe_O[8]
*41 FrameStrobe_O[9]
*42 N1BEG[0]
*43 N1BEG[1]
*44 N1BEG[2]
*45 N1BEG[3]
*46 N2BEG[0]
*47 N2BEG[1]
*48 N2BEG[2]
*49 N2BEG[3]
*50 N2BEG[4]
*51 N2BEG[5]
*52 N2BEG[6]
*53 N2BEG[7]
*54 N2BEGb[0]
*55 N2BEGb[1]
*56 N2BEGb[2]
*57 N2BEGb[3]
*58 N2BEGb[4]
*59 N2BEGb[5]
*60 N2BEGb[6]
*61 N2BEGb[7]
*62 N4BEG[0]
*63 N4BEG[10]
*64 N4BEG[11]
*65 N4BEG[12]
*66 N4BEG[13]
*67 N4BEG[14]
*68 N4BEG[15]
*69 N4BEG[1]
*70 N4BEG[2]
*71 N4BEG[3]
*72 N4BEG[4]
*73 N4BEG[5]
*74 N4BEG[6]
*75 N4BEG[7]
*76 N4BEG[8]
*77 N4BEG[9]
*78 NN4BEG[0]
*79 NN4BEG[10]
*80 NN4BEG[11]
*81 NN4BEG[12]
*82 NN4BEG[13]
*83 NN4BEG[14]
*84 NN4BEG[15]
*85 NN4BEG[1]
*86 NN4BEG[2]
*87 NN4BEG[3]
*88 NN4BEG[4]
*89 NN4BEG[5]
*90 NN4BEG[6]
*91 NN4BEG[7]
*92 NN4BEG[8]
*93 NN4BEG[9]
*94 S1END[0]
*95 S1END[1]
*96 S1END[2]
*97 S1END[3]
*98 S2END[0]
*99 S2END[1]
*100 S2END[2]
*101 S2END[3]
*102 S2END[4]
*103 S2END[5]
*104 S2END[6]
*105 S2END[7]
*106 S2MID[0]
*107 S2MID[1]
*108 S2MID[2]
*109 S2MID[3]
*110 S2MID[4]
*111 S2MID[5]
*112 S2MID[6]
*113 S2MID[7]
*114 S4END[0]
*115 S4END[10]
*116 S4END[11]
*117 S4END[12]
*118 S4END[13]
*119 S4END[14]
*120 S4END[15]
*121 S4END[1]
*122 S4END[2]
*123 S4END[3]
*124 S4END[4]
*125 S4END[5]
*126 S4END[6]
*127 S4END[7]
*128 S4END[8]
*129 S4END[9]
*130 SS4END[0]
*131 SS4END[10]
*132 SS4END[11]
*133 SS4END[12]
*134 SS4END[13]
*135 SS4END[14]
*136 SS4END[15]
*137 SS4END[1]
*138 SS4END[2]
*139 SS4END[3]
*140 SS4END[4]
*141 SS4END[5]
*142 SS4END[6]
*143 SS4END[7]
*144 SS4END[8]
*145 SS4END[9]
*146 UIO_BOT_UIN0
*147 UIO_BOT_UIN1
*148 UIO_BOT_UIN10
*149 UIO_BOT_UIN11
*150 UIO_BOT_UIN12
*151 UIO_BOT_UIN13
*152 UIO_BOT_UIN14
*153 UIO_BOT_UIN15
*154 UIO_BOT_UIN16
*155 UIO_BOT_UIN17
*156 UIO_BOT_UIN18
*157 UIO_BOT_UIN19
*158 UIO_BOT_UIN2
*159 UIO_BOT_UIN3
*160 UIO_BOT_UIN4
*161 UIO_BOT_UIN5
*162 UIO_BOT_UIN6
*163 UIO_BOT_UIN7
*164 UIO_BOT_UIN8
*165 UIO_BOT_UIN9
*166 UIO_BOT_UOUT0
*167 UIO_BOT_UOUT1
*168 UIO_BOT_UOUT10
*169 UIO_BOT_UOUT11
*170 UIO_BOT_UOUT12
*171 UIO_BOT_UOUT13
*172 UIO_BOT_UOUT14
*173 UIO_BOT_UOUT15
*174 UIO_BOT_UOUT16
*175 UIO_BOT_UOUT17
*176 UIO_BOT_UOUT18
*177 UIO_BOT_UOUT19
*178 UIO_BOT_UOUT2
*179 UIO_BOT_UOUT3
*180 UIO_BOT_UOUT4
*181 UIO_BOT_UOUT5
*182 UIO_BOT_UOUT6
*183 UIO_BOT_UOUT7
*184 UIO_BOT_UOUT8
*185 UIO_BOT_UOUT9
*186 UserCLK
*187 UserCLKo
*190 net1
*191 net10
*192 net100
*193 net101
*194 net102
*195 net103
*196 net104
*197 net105
*198 net106
*199 net107
*200 net108
*201 net109
*202 net11
*203 net110
*204 net111
*205 net112
*206 net113
*207 net114
*208 net115
*209 net116
*210 net117
*211 net118
*212 net119
*213 net12
*214 net120
*215 net121
*216 net122
*217 net123
*218 net124
*219 net125
*220 net126
*221 net127
*222 net128
*223 net129
*224 net13
*225 net130
*226 net131
*227 net132
*228 net133
*229 net134
*230 net135
*231 net136
*232 net137
*233 net138
*234 net139
*235 net14
*236 net140
*237 net141
*238 net142
*239 net143
*240 net144
*241 net145
*242 net146
*243 net147
*244 net148
*245 net149
*246 net15
*247 net150
*248 net151
*249 net152
*250 net153
*251 net154
*252 net155
*253 net156
*254 net157
*255 net158
*256 net159
*257 net16
*258 net160
*259 net161
*260 net162
*261 net163
*262 net164
*263 net165
*264 net166
*265 net167
*266 net168
*267 net169
*268 net17
*269 net170
*270 net171
*271 net172
*272 net173
*273 net174
*274 net175
*275 net176
*276 net177
*277 net178
*278 net179
*279 net18
*280 net180
*281 net181
*282 net182
*283 net19
*284 net2
*285 net20
*286 net21
*287 net22
*288 net23
*289 net24
*290 net25
*291 net26
*292 net27
*293 net28
*294 net29
*295 net3
*296 net30
*297 net31
*298 net32
*299 net33
*300 net34
*301 net35
*302 net36
*303 net37
*304 net38
*305 net39
*306 net4
*307 net40
*308 net41
*309 net42
*310 net43
*311 net44
*312 net45
*313 net46
*314 net47
*315 net48
*316 net49
*317 net5
*318 net50
*319 net51
*320 net52
*321 net53
*322 net54
*323 net55
*324 net56
*325 net57
*326 net58
*327 net59
*328 net6
*329 net60
*330 net61
*331 net62
*332 net63
*333 net64
*334 net65
*335 net66
*336 net67
*337 net68
*338 net69
*339 net7
*340 net70
*341 net71
*342 net72
*343 net73
*344 net74
*345 net75
*346 net76
*347 net77
*348 net78
*349 net79
*350 net8
*351 net80
*352 net81
*353 net82
*354 net83
*355 net84
*356 net85
*357 net86
*358 net87
*359 net88
*360 net89
*361 net9
*362 net90
*363 net91
*364 net92
*365 net93
*366 net94
*367 net95
*368 net96
*369 net97
*370 net98
*371 net99
*372 FILLER_0_0_10
*373 FILLER_0_0_101
*374 FILLER_0_0_105
*375 FILLER_0_0_111
*376 FILLER_0_0_116
*377 FILLER_0_0_121
*378 FILLER_0_0_125
*379 FILLER_0_0_129
*380 FILLER_0_0_133
*381 FILLER_0_0_137
*382 FILLER_0_0_141
*383 FILLER_0_0_145
*384 FILLER_0_0_149
*385 FILLER_0_0_153
*386 FILLER_0_0_157
*387 FILLER_0_0_161
*388 FILLER_0_0_167
*389 FILLER_0_0_172
*390 FILLER_0_0_177
*391 FILLER_0_0_181
*392 FILLER_0_0_185
*393 FILLER_0_0_189
*394 FILLER_0_0_193
*395 FILLER_0_0_197
*396 FILLER_0_0_201
*397 FILLER_0_0_205
*398 FILLER_0_0_209
*399 FILLER_0_0_213
*400 FILLER_0_0_217
*401 FILLER_0_0_22
*402 FILLER_0_0_223
*403 FILLER_0_0_228
*404 FILLER_0_0_233
*405 FILLER_0_0_237
*406 FILLER_0_0_241
*407 FILLER_0_0_245
*408 FILLER_0_0_249
*409 FILLER_0_0_253
*410 FILLER_0_0_257
*411 FILLER_0_0_261
*412 FILLER_0_0_265
*413 FILLER_0_0_269
*414 FILLER_0_0_273
*415 FILLER_0_0_279
*416 FILLER_0_0_284
*417 FILLER_0_0_289
*418 FILLER_0_0_29
*419 FILLER_0_0_293
*420 FILLER_0_0_297
*421 FILLER_0_0_3
*422 FILLER_0_0_301
*423 FILLER_0_0_305
*424 FILLER_0_0_309
*425 FILLER_0_0_313
*426 FILLER_0_0_317
*427 FILLER_0_0_321
*428 FILLER_0_0_325
*429 FILLER_0_0_332
*430 FILLER_0_0_349
*431 FILLER_0_0_35
*432 FILLER_0_0_356
*433 FILLER_0_0_365
*434 FILLER_0_0_372
*435 FILLER_0_0_380
*436 FILLER_0_0_388
*437 FILLER_0_0_405
*438 FILLER_0_0_412
*439 FILLER_0_0_421
*440 FILLER_0_0_428
*441 FILLER_0_0_436
*442 FILLER_0_0_444
*443 FILLER_0_0_461
*444 FILLER_0_0_468
*445 FILLER_0_0_472
*446 FILLER_0_0_57
*447 FILLER_0_0_61
*448 FILLER_0_0_75
*449 FILLER_0_0_81
*450 FILLER_0_0_85
*451 FILLER_0_0_89
*452 FILLER_0_0_93
*453 FILLER_0_0_97
*454 FILLER_0_1_103
*455 FILLER_0_1_111
*456 FILLER_0_1_113
*457 FILLER_0_1_125
*458 FILLER_0_1_129
*459 FILLER_0_1_13
*460 FILLER_0_1_141
*461 FILLER_0_1_153
*462 FILLER_0_1_167
*463 FILLER_0_1_169
*464 FILLER_0_1_177
*465 FILLER_0_1_18
*466 FILLER_0_1_189
*467 FILLER_0_1_201
*468 FILLER_0_1_213
*469 FILLER_0_1_221
*470 FILLER_0_1_225
*471 FILLER_0_1_237
*472 FILLER_0_1_252
*473 FILLER_0_1_260
*474 FILLER_0_1_266
*475 FILLER_0_1_270
*476 FILLER_0_1_274
*477 FILLER_0_1_284
*478 FILLER_0_1_290
*479 FILLER_0_1_302
*480 FILLER_0_1_314
*481 FILLER_0_1_326
*482 FILLER_0_1_334
*483 FILLER_0_1_337
*484 FILLER_0_1_350
*485 FILLER_0_1_362
*486 FILLER_0_1_369
*487 FILLER_0_1_381
*488 FILLER_0_1_389
*489 FILLER_0_1_393
*490 FILLER_0_1_40
*491 FILLER_0_1_405
*492 FILLER_0_1_417
*493 FILLER_0_1_429
*494 FILLER_0_1_441
*495 FILLER_0_1_447
*496 FILLER_0_1_449
*497 FILLER_0_1_50
*498 FILLER_0_1_57
*499 FILLER_0_1_69
*500 FILLER_0_1_7
*501 FILLER_0_1_81
*502 FILLER_0_1_93
*503 FILLER_0_2_109
*504 FILLER_0_2_121
*505 FILLER_0_2_133
*506 FILLER_0_2_139
*507 FILLER_0_2_141
*508 FILLER_0_2_15
*509 FILLER_0_2_153
*510 FILLER_0_2_161
*511 FILLER_0_2_166
*512 FILLER_0_2_178
*513 FILLER_0_2_190
*514 FILLER_0_2_197
*515 FILLER_0_2_209
*516 FILLER_0_2_221
*517 FILLER_0_2_233
*518 FILLER_0_2_245
*519 FILLER_0_2_251
*520 FILLER_0_2_253
*521 FILLER_0_2_265
*522 FILLER_0_2_27
*523 FILLER_0_2_277
*524 FILLER_0_2_281
*525 FILLER_0_2_29
*526 FILLER_0_2_293
*527 FILLER_0_2_3
*528 FILLER_0_2_305
*529 FILLER_0_2_309
*530 FILLER_0_2_321
*531 FILLER_0_2_329
*532 FILLER_0_2_333
*533 FILLER_0_2_345
*534 FILLER_0_2_356
*535 FILLER_0_2_365
*536 FILLER_0_2_377
*537 FILLER_0_2_389
*538 FILLER_0_2_401
*539 FILLER_0_2_41
*540 FILLER_0_2_413
*541 FILLER_0_2_419
*542 FILLER_0_2_421
*543 FILLER_0_2_433
*544 FILLER_0_2_445
*545 FILLER_0_2_457
*546 FILLER_0_2_469
*547 FILLER_0_2_53
*548 FILLER_0_2_65
*549 FILLER_0_2_77
*550 FILLER_0_2_83
*551 FILLER_0_2_85
*552 FILLER_0_2_97
*553 FILLER_0_3_105
*554 FILLER_0_3_113
*555 FILLER_0_3_119
*556 FILLER_0_3_130
*557 FILLER_0_3_138
*558 FILLER_0_3_15
*559 FILLER_0_3_153
*560 FILLER_0_3_165
*561 FILLER_0_3_169
*562 FILLER_0_3_176
*563 FILLER_0_3_180
*564 FILLER_0_3_199
*565 FILLER_0_3_203
*566 FILLER_0_3_207
*567 FILLER_0_3_211
*568 FILLER_0_3_217
*569 FILLER_0_3_223
*570 FILLER_0_3_225
*571 FILLER_0_3_237
*572 FILLER_0_3_249
*573 FILLER_0_3_261
*574 FILLER_0_3_27
*575 FILLER_0_3_273
*576 FILLER_0_3_278
*577 FILLER_0_3_281
*578 FILLER_0_3_293
*579 FILLER_0_3_3
*580 FILLER_0_3_305
*581 FILLER_0_3_317
*582 FILLER_0_3_329
*583 FILLER_0_3_335
*584 FILLER_0_3_337
*585 FILLER_0_3_349
*586 FILLER_0_3_361
*587 FILLER_0_3_388
*588 FILLER_0_3_39
*589 FILLER_0_3_393
*590 FILLER_0_3_405
*591 FILLER_0_3_416
*592 FILLER_0_3_420
*593 FILLER_0_3_424
*594 FILLER_0_3_428
*595 FILLER_0_3_432
*596 FILLER_0_3_444
*597 FILLER_0_3_449
*598 FILLER_0_3_461
*599 FILLER_0_3_51
*600 FILLER_0_3_55
*601 FILLER_0_3_57
*602 FILLER_0_3_69
*603 FILLER_0_3_81
*604 FILLER_0_3_90
*605 FILLER_0_3_99
*606 FILLER_0_4_15
*607 FILLER_0_4_195
*608 FILLER_0_4_197
*609 FILLER_0_4_219
*610 FILLER_0_4_223
*611 FILLER_0_4_233
*612 FILLER_0_4_246
*613 FILLER_0_4_250
*614 FILLER_0_4_27
*615 FILLER_0_4_271
*616 FILLER_0_4_275
*617 FILLER_0_4_287
*618 FILLER_0_4_29
*619 FILLER_0_4_3
*620 FILLER_0_4_300
*621 FILLER_0_4_306
*622 FILLER_0_4_309
*623 FILLER_0_4_314
*624 FILLER_0_4_322
*625 FILLER_0_4_326
*626 FILLER_0_4_333
*627 FILLER_0_4_337
*628 FILLER_0_4_341
*629 FILLER_0_4_348
*630 FILLER_0_4_356
*631 FILLER_0_4_363
*632 FILLER_0_4_365
*633 FILLER_0_4_41
*634 FILLER_0_4_442
*635 FILLER_0_4_448
*636 FILLER_0_4_460
*637 FILLER_0_4_47
*638 FILLER_0_4_472
*639 FILLER_0_4_85
*640 FILLER_0_5_141
*641 FILLER_0_5_15
*642 FILLER_0_5_169
*643 FILLER_0_5_197
*644 FILLER_0_5_216
*645 FILLER_0_5_27
*646 FILLER_0_5_29
*647 FILLER_0_5_3
*648 FILLER_0_5_305
*649 FILLER_0_5_309
*650 FILLER_0_5_389
*651 FILLER_0_5_41
*652 FILLER_0_5_417
*653 FILLER_0_5_439
*654 FILLER_0_5_447
*655 FILLER_0_5_449
*656 FILLER_0_5_461
*657 FILLER_0_5_57
*658 FILLER_0_5_85
*659 PHY_0
*660 PHY_1
*661 PHY_10
*662 PHY_11
*663 PHY_2
*664 PHY_3
*665 PHY_4
*666 PHY_5
*667 PHY_6
*668 PHY_7
*669 PHY_8
*670 PHY_9
*671 S_term_single_183
*672 TAP_12
*673 TAP_13
*674 TAP_14
*675 TAP_15
*676 TAP_16
*677 TAP_17
*678 TAP_18
*679 TAP_19
*680 TAP_20
*681 TAP_21
*682 TAP_22
*683 TAP_23
*684 TAP_24
*685 TAP_25
*686 TAP_26
*687 TAP_27
*688 TAP_28
*689 TAP_29
*690 TAP_30
*691 TAP_31
*692 TAP_32
*693 TAP_33
*694 TAP_34
*695 TAP_35
*696 TAP_36
*697 TAP_37
*698 TAP_38
*699 TAP_39
*700 TAP_40
*701 TAP_41
*702 TAP_42
*703 TAP_43
*704 TAP_44
*705 TAP_45
*706 TAP_46
*707 TAP_47
*708 TAP_48
*709 TAP_49
*710 TAP_50
*711 TAP_51
*712 TAP_52
*713 TAP_53
*714 TAP_54
*715 TAP_55
*716 TAP_56
*717 TAP_57
*718 TAP_58
*719 TAP_59
*720 TAP_60
*721 TAP_61
*722 TAP_62
*723 TAP_63
*724 TAP_64
*725 TAP_65
*726 TAP_66
*727 TAP_67
*728 TAP_68
*729 TAP_69
*730 TAP_70
*731 TAP_71
*732 TAP_72
*733 TAP_73
*734 TAP_74
*735 TAP_75
*736 _01_
*737 _02_
*738 _03_
*739 _04_
*740 _05_
*741 _06_
*742 _07_
*743 _08_
*744 _09_
*745 _10_
*746 _11_
*747 _12_
*748 _13_
*749 _14_
*750 _15_
*751 _16_
*752 _17_
*753 _18_
*754 _19_
*755 _20_
*756 _21_
*757 _22_
*758 _23_
*759 _24_
*760 _25_
*761 _26_
*762 _27_
*763 _28_
*764 _29_
*765 _30_
*766 _31_
*767 _32_
*768 _33_
*769 _34_
*770 _35_
*771 _36_
*772 _37_
*773 _38_
*774 _39_
*775 _40_
*776 _41_
*777 _42_
*778 _43_
*779 _44_
*780 _45_
*781 _46_
*782 _47_
*783 _48_
*784 _49_
*785 _50_
*786 _51_
*787 _52_
*788 _53_
*789 _54_
*790 _55_
*791 _56_
*792 _57_
*793 _58_
*794 _59_
*795 _60_
*796 _61_
*797 _62_
*798 _63_
*799 _64_
*800 _65_
*801 _66_
*802 _67_
*803 _68_
*804 _69_
*805 _70_
*806 _71_
*807 _72_
*808 _73_
*809 _74_
*810 _75_
*811 _76_
*812 _77_
*813 _78_
*814 _79_
*815 _80_
*816 _81_
*817 _82_
*818 _83_
*819 _84_
*820 _85_
*821 _86_
*822 _87_
*823 _88_
*824 _89_
*825 _90_
*826 _91_
*827 _92_
*828 _93_
*829 input1
*830 input10
*831 input11
*832 input12
*833 input13
*834 input14
*835 input15
*836 input16
*837 input17
*838 input18
*839 input19
*840 input2
*841 input20
*842 input21
*843 input22
*844 input23
*845 input24
*846 input25
*847 input26
*848 input27
*849 input28
*850 input29
*851 input3
*852 input30
*853 input31
*854 input32
*855 input33
*856 input34
*857 input35
*858 input36
*859 input37
*860 input38
*861 input39
*862 input4
*863 input40
*864 input41
*865 input42
*866 input43
*867 input44
*868 input45
*869 input46
*870 input47
*871 input48
*872 input49
*873 input5
*874 input50
*875 input51
*876 input52
*877 input53
*878 input54
*879 input55
*880 input56
*881 input57
*882 input58
*883 input59
*884 input6
*885 input60
*886 input61
*887 input62
*888 input63
*889 input64
*890 input65
*891 input66
*892 input67
*893 input68
*894 input69
*895 input7
*896 input70
*897 input71
*898 input72
*899 input73
*900 input74
*901 input75
*902 input76
*903 input77
*904 input78
*905 input79
*906 input8
*907 input80
*908 input81
*909 input82
*910 input83
*911 input84
*912 input85
*913 input86
*914 input87
*915 input88
*916 input89
*917 input9
*918 output100
*919 output101
*920 output102
*921 output103
*922 output104
*923 output105
*924 output106
*925 output107
*926 output108
*927 output109
*928 output110
*929 output111
*930 output112
*931 output113
*932 output114
*933 output115
*934 output116
*935 output117
*936 output118
*937 output119
*938 output120
*939 output121
*940 output122
*941 output123
*942 output124
*943 output125
*944 output126
*945 output127
*946 output128
*947 output129
*948 output130
*949 output131
*950 output132
*951 output133
*952 output134
*953 output135
*954 output136
*955 output137
*956 output138
*957 output139
*958 output140
*959 output141
*960 output142
*961 output143
*962 output144
*963 output145
*964 output146
*965 output147
*966 output148
*967 output149
*968 output150
*969 output151
*970 output152
*971 output153
*972 output154
*973 output155
*974 output156
*975 output157
*976 output158
*977 output159
*978 output160
*979 output161
*980 output162
*981 output163
*982 output164
*983 output165
*984 output166
*985 output167
*986 output168
*987 output169
*988 output170
*989 output171
*990 output172
*991 output173
*992 output174
*993 output175
*994 output176
*995 output177
*996 output178
*997 output179
*998 output180
*999 output181
*1000 output182
*1001 output90
*1002 output91
*1003 output92
*1004 output93
*1005 output94
*1006 output95
*1007 output96
*1008 output97
*1009 output98
*1010 output99

*PORTS
Co O
FrameStrobe[0] I
FrameStrobe[10] I
FrameStrobe[11] I
FrameStrobe[12] I
FrameStrobe[13] I
FrameStrobe[14] I
FrameStrobe[15] I
FrameStrobe[16] I
FrameStrobe[17] I
FrameStrobe[18] I
FrameStrobe[19] I
FrameStrobe[1] I
FrameStrobe[2] I
FrameStrobe[3] I
FrameStrobe[4] I
FrameStrobe[5] I
FrameStrobe[6] I
FrameStrobe[7] I
FrameStrobe[8] I
FrameStrobe[9] I
FrameStrobe_O[0] O
FrameStrobe_O[10] O
FrameStrobe_O[11] O
FrameStrobe_O[12] O
FrameStrobe_O[13] O
FrameStrobe_O[14] O
FrameStrobe_O[15] O
FrameStrobe_O[16] O
FrameStrobe_O[17] O
FrameStrobe_O[18] O
FrameStrobe_O[19] O
FrameStrobe_O[1] O
FrameStrobe_O[2] O
FrameStrobe_O[3] O
FrameStrobe_O[4] O
FrameStrobe_O[5] O
FrameStrobe_O[6] O
FrameStrobe_O[7] O
FrameStrobe_O[8] O
FrameStrobe_O[9] O
N1BEG[0] O
N1BEG[1] O
N1BEG[2] O
N1BEG[3] O
N2BEG[0] O
N2BEG[1] O
N2BEG[2] O
N2BEG[3] O
N2BEG[4] O
N2BEG[5] O
N2BEG[6] O
N2BEG[7] O
N2BEGb[0] O
N2BEGb[1] O
N2BEGb[2] O
N2BEGb[3] O
N2BEGb[4] O
N2BEGb[5] O
N2BEGb[6] O
N2BEGb[7] O
N4BEG[0] O
N4BEG[10] O
N4BEG[11] O
N4BEG[12] O
N4BEG[13] O
N4BEG[14] O
N4BEG[15] O
N4BEG[1] O
N4BEG[2] O
N4BEG[3] O
N4BEG[4] O
N4BEG[5] O
N4BEG[6] O
N4BEG[7] O
N4BEG[8] O
N4BEG[9] O
NN4BEG[0] O
NN4BEG[10] O
NN4BEG[11] O
NN4BEG[12] O
NN4BEG[13] O
NN4BEG[14] O
NN4BEG[15] O
NN4BEG[1] O
NN4BEG[2] O
NN4BEG[3] O
NN4BEG[4] O
NN4BEG[5] O
NN4BEG[6] O
NN4BEG[7] O
NN4BEG[8] O
NN4BEG[9] O
S1END[0] I
S1END[1] I
S1END[2] I
S1END[3] I
S2END[0] I
S2END[1] I
S2END[2] I
S2END[3] I
S2END[4] I
S2END[5] I
S2END[6] I
S2END[7] I
S2MID[0] I
S2MID[1] I
S2MID[2] I
S2MID[3] I
S2MID[4] I
S2MID[5] I
S2MID[6] I
S2MID[7] I
S4END[0] I
S4END[10] I
S4END[11] I
S4END[12] I
S4END[13] I
S4END[14] I
S4END[15] I
S4END[1] I
S4END[2] I
S4END[3] I
S4END[4] I
S4END[5] I
S4END[6] I
S4END[7] I
S4END[8] I
S4END[9] I
SS4END[0] I
SS4END[10] I
SS4END[11] I
SS4END[12] I
SS4END[13] I
SS4END[14] I
SS4END[15] I
SS4END[1] I
SS4END[2] I
SS4END[3] I
SS4END[4] I
SS4END[5] I
SS4END[6] I
SS4END[7] I
SS4END[8] I
SS4END[9] I
UIO_BOT_UIN0 I
UIO_BOT_UIN1 I
UIO_BOT_UIN10 I
UIO_BOT_UIN11 I
UIO_BOT_UIN12 I
UIO_BOT_UIN13 I
UIO_BOT_UIN14 I
UIO_BOT_UIN15 I
UIO_BOT_UIN16 I
UIO_BOT_UIN17 I
UIO_BOT_UIN18 I
UIO_BOT_UIN19 I
UIO_BOT_UIN2 I
UIO_BOT_UIN3 I
UIO_BOT_UIN4 I
UIO_BOT_UIN5 I
UIO_BOT_UIN6 I
UIO_BOT_UIN7 I
UIO_BOT_UIN8 I
UIO_BOT_UIN9 I
UIO_BOT_UOUT0 O
UIO_BOT_UOUT1 O
UIO_BOT_UOUT10 O
UIO_BOT_UOUT11 O
UIO_BOT_UOUT12 O
UIO_BOT_UOUT13 O
UIO_BOT_UOUT14 O
UIO_BOT_UOUT15 O
UIO_BOT_UOUT16 O
UIO_BOT_UOUT17 O
UIO_BOT_UOUT18 O
UIO_BOT_UOUT19 O
UIO_BOT_UOUT2 O
UIO_BOT_UOUT3 O
UIO_BOT_UOUT4 O
UIO_BOT_UOUT5 O
UIO_BOT_UOUT6 O
UIO_BOT_UOUT7 O
UIO_BOT_UOUT8 O
UIO_BOT_UOUT9 O
UserCLK I
UserCLKo O

*D_NET *1 0.00198418
*CONN
*P Co O
*I *671:LO O *D sky130_fd_sc_hd__conb_1
*CAP
1 Co 0.000640483
2 *671:LO 0
3 *1:6 0.000640483
4 Co FrameStrobe_O[0] 0.000539165
5 Co FrameStrobe_O[1] 0
6 Co UserCLKo 0
7 Co *1000:A 7.54991e-05
8 Co *136:11 0
9 Co *187:12 2.84845e-05
10 Co *213:20 6.00689e-05
*RES
1 *671:LO *1:6 38 
2 *1:6 Co 17.0686 
*END

*D_NET *2 0.00143313
*CONN
*P FrameStrobe[0] I
*I *829:A I *D sky130_fd_sc_hd__clkbuf_2
*CAP
1 FrameStrobe[0] 0.000506643
2 *829:A 0
3 *2:9 0.000506643
4 *2:9 *13:9 0
5 *2:9 *186:9 0
6 *2:9 *360:8 0.000419843
*RES
1 FrameStrobe[0] *2:9 27.9671 
2 *2:9 *829:A 23 
*END

*D_NET *3 0.00133101
*CONN
*P FrameStrobe[10] I
*I *840:A I *D sky130_fd_sc_hd__buf_1
*CAP
1 FrameStrobe[10] 0.000622829
2 *840:A 0
3 *3:9 0.000622829
4 *3:9 *4:9 0
5 *3:9 *21:9 0
6 *3:9 *284:10 8.53532e-05
7 *3:9 *285:10 0
*RES
1 FrameStrobe[10] *3:9 27.8429 
2 *3:9 *840:A 23 
*END

*D_NET *4 0.00132804
*CONN
*P FrameStrobe[11] I
*I *851:A I *D sky130_fd_sc_hd__clkbuf_1
*CAP
1 FrameStrobe[11] 0.000664019
2 *851:A 0
3 *4:9 0.000664019
4 *4:9 *5:9 0
5 *4:9 *284:10 0
6 *3:9 *4:9 0
*RES
1 FrameStrobe[11] *4:9 27.8429 
2 *4:9 *851:A 23 
*END

*D_NET *5 0.00133257
*CONN
*P FrameStrobe[12] I
*I *862:A I *D sky130_fd_sc_hd__clkbuf_1
*CAP
1 FrameStrobe[12] 0.000666283
2 *862:A 0
3 *5:9 0.000666283
4 *4:9 *5:9 0
*RES
1 FrameStrobe[12] *5:9 27.8429 
2 *5:9 *862:A 23 
*END

*D_NET *6 0.00149805
*CONN
*P FrameStrobe[13] I
*I *873:A I *D sky130_fd_sc_hd__clkbuf_1
*CAP
1 FrameStrobe[13] 0.000593964
2 *873:A 0
3 *6:9 0.000593964
4 *6:9 *7:11 0.000310118
*RES
1 FrameStrobe[13] *6:9 29.2721 
2 *6:9 *873:A 23 
*END

*D_NET *7 0.00150057
*CONN
*P FrameStrobe[14] I
*I *884:A I *D sky130_fd_sc_hd__clkbuf_1
*CAP
1 FrameStrobe[14] 0.000595225
2 *884:A 0
3 *7:11 0.000595225
4 *7:11 *8:9 0
5 *6:9 *7:11 0.000310118
*RES
1 FrameStrobe[14] *7:11 28.9407 
2 *7:11 *884:A 23 
*END

*D_NET *8 0.00144847
*CONN
*P FrameStrobe[15] I
*I *895:A I *D sky130_fd_sc_hd__clkbuf_1
*CAP
1 FrameStrobe[15] 0.00061688
2 *895:A 0
3 *8:9 0.00061688
4 *8:9 *9:9 0
5 *8:9 *345:18 0.000214714
6 *7:11 *8:9 0
*RES
1 FrameStrobe[15] *8:9 27.8429 
2 *8:9 *895:A 23 
*END

*D_NET *9 0.00134864
*CONN
*P FrameStrobe[16] I
*I *906:A I *D sky130_fd_sc_hd__clkbuf_1
*CAP
1 FrameStrobe[16] 0.00067432
2 *906:A 0
3 *9:9 0.00067432
4 *9:9 *10:9 0
5 *9:9 *345:18 0
6 *8:9 *9:9 0
*RES
1 FrameStrobe[16] *9:9 27.8429 
2 *9:9 *906:A 23 
*END

*D_NET *10 0.00135139
*CONN
*P FrameStrobe[17] I
*I *917:A I *D sky130_fd_sc_hd__clkbuf_1
*CAP
1 FrameStrobe[17] 0.000675695
2 *917:A 0
3 *10:9 0.000675695
4 *10:9 *11:9 0
5 *9:9 *10:9 0
*RES
1 FrameStrobe[17] *10:9 27.8429 
2 *10:9 *917:A 23 
*END

*D_NET *11 0.00135139
*CONN
*P FrameStrobe[18] I
*I *830:A I *D sky130_fd_sc_hd__clkbuf_1
*CAP
1 FrameStrobe[18] 0.000675695
2 *830:A 0
3 *11:9 0.000675695
4 *11:9 *12:9 0
5 *11:9 *344:22 0
6 *10:9 *11:9 0
*RES
1 FrameStrobe[18] *11:9 27.8429 
2 *11:9 *830:A 23 
*END

*D_NET *12 0.00141618
*CONN
*P FrameStrobe[19] I
*I *831:A I *D sky130_fd_sc_hd__clkbuf_1
*CAP
1 FrameStrobe[19] 0.000633228
2 *831:A 0
3 *12:9 0.000633228
4 *12:9 *146:13 0
5 *12:9 *344:22 6.49723e-05
6 *12:9 *346:18 8.47513e-05
7 *11:9 *12:9 0
*RES
1 FrameStrobe[19] *12:9 27.8429 
2 *12:9 *831:A 23 
*END

*D_NET *13 0.00155258
*CONN
*P FrameStrobe[1] I
*I *832:A I *D sky130_fd_sc_hd__clkbuf_2
*CAP
1 FrameStrobe[1] 0.000776291
2 *832:A 0
3 *13:9 0.000776291
4 *13:9 *14:9 0
5 *13:9 *190:12 0
6 *13:9 *360:8 0
7 *2:9 *13:9 0
*RES
1 FrameStrobe[1] *13:9 31.4886 
2 *13:9 *832:A 23 
*END

*D_NET *14 0.00135299
*CONN
*P FrameStrobe[2] I
*I *833:A I *D sky130_fd_sc_hd__clkbuf_2
*CAP
1 FrameStrobe[2] 0.000560657
2 *833:A 0
3 *14:9 0.000560657
4 *14:9 *15:9 0
5 *14:9 *224:8 0.000231674
6 *13:9 *14:9 0
*RES
1 FrameStrobe[2] *14:9 28.92 
2 *14:9 *833:A 23 
*END

*D_NET *15 0.00151048
*CONN
*P FrameStrobe[3] I
*I *834:A I *D sky130_fd_sc_hd__dlymetal6s2s_1
*CAP
1 FrameStrobe[3] 0.000677734
2 *834:A 0
3 *15:9 0.000677734
4 *15:9 *16:9 0
5 *15:9 *224:8 0.000155007
6 *15:9 *246:10 0
7 *14:9 *15:9 0
*RES
1 FrameStrobe[3] *15:9 30.66 
2 *15:9 *834:A 23 
*END

*D_NET *16 0.00120589
*CONN
*P FrameStrobe[4] I
*I *835:A I *D sky130_fd_sc_hd__dlymetal6s2s_1
*CAP
1 FrameStrobe[4] 0.000602947
2 *835:A 0
3 *16:9 0.000602947
4 *15:9 *16:9 0
*RES
1 FrameStrobe[4] *16:9 27.8429 
2 *16:9 *835:A 23 
*END

*D_NET *17 0.0016969
*CONN
*P FrameStrobe[5] I
*I *836:A I *D sky130_fd_sc_hd__clkbuf_2
*CAP
1 FrameStrobe[5] 0.000674628
2 *836:A 0
3 *17:9 0.000674628
4 *17:9 *18:9 0
5 *17:9 *257:8 0.000347641
*RES
1 FrameStrobe[5] *17:9 31.4886 
2 *17:9 *836:A 23 
*END

*D_NET *18 0.00128049
*CONN
*P FrameStrobe[6] I
*I *837:A I *D sky130_fd_sc_hd__dlymetal6s2s_1
*CAP
1 FrameStrobe[6] 0.000637192
2 *837:A 0
3 *18:9 0.000637192
4 *18:9 *19:9 0
5 *18:9 *257:8 0
6 *18:9 *268:10 6.10551e-06
7 *17:9 *18:9 0
*RES
1 FrameStrobe[6] *18:9 28.3193 
2 *18:9 *837:A 23 
*END

*D_NET *19 0.00125836
*CONN
*P FrameStrobe[7] I
*I *838:A I *D sky130_fd_sc_hd__dlymetal6s2s_1
*CAP
1 FrameStrobe[7] 0.000579855
2 *838:A 0
3 *19:9 0.000579855
4 *19:9 *20:9 0
5 *19:9 *279:10 9.86478e-05
6 *18:9 *19:9 0
*RES
1 FrameStrobe[7] *19:9 27.8429 
2 *19:9 *838:A 23 
*END

*D_NET *20 0.00137279
*CONN
*P FrameStrobe[8] I
*I *839:A I *D sky130_fd_sc_hd__buf_1
*CAP
1 FrameStrobe[8] 0.000664726
2 *839:A 0
3 *20:9 0.000664726
4 *20:9 *21:9 0
5 *20:9 *279:10 0
6 *20:9 *283:8 4.334e-05
7 *19:9 *20:9 0
*RES
1 FrameStrobe[8] *20:9 28.7957 
2 *20:9 *839:A 23 
*END

*D_NET *21 0.00128668
*CONN
*P FrameStrobe[9] I
*I *841:A I *D sky130_fd_sc_hd__buf_1
*CAP
1 FrameStrobe[9] 0.000609518
2 *841:A 0
3 *21:9 0.000609518
4 *21:9 *283:8 2.79004e-05
5 *21:9 *285:10 3.97478e-05
6 *3:9 *21:9 0
7 *20:9 *21:9 0
*RES
1 FrameStrobe[9] *21:9 27.8429 
2 *21:9 *841:A 23 
*END

*D_NET *22 0.00219494
*CONN
*P FrameStrobe_O[0] O
*I *1001:X O *D sky130_fd_sc_hd__clkbuf_4
*CAP
1 FrameStrobe_O[0] 0.000415874
2 *1001:X 0.000207688
3 *22:8 0.000623562
4 FrameStrobe_O[0] FrameStrobe_O[1] 0
5 FrameStrobe_O[0] *213:20 0.000321183
6 FrameStrobe_O[0] *235:20 2.60152e-05
7 *22:8 *919:A 3.38388e-05
8 *22:8 *201:18 2.76123e-05
9 Co FrameStrobe_O[0] 0.000539165
*RES
1 *1001:X *22:8 40.5271 
2 *22:8 FrameStrobe_O[0] 13.63 
*END

*D_NET *23 0.00291968
*CONN
*P FrameStrobe_O[10] O
*I *1002:X O *D sky130_fd_sc_hd__clkbuf_4
*CAP
1 FrameStrobe_O[10] 0.000596775
2 *1002:X 0.000202003
3 *23:8 0.000798778
4 FrameStrobe_O[10] FrameStrobe_O[11] 0
5 FrameStrobe_O[10] FrameStrobe_O[12] 0
6 FrameStrobe_O[10] FrameStrobe_O[9] 0.0011548
7 FrameStrobe_O[10] *40:12 0
8 FrameStrobe_O[10] *364:16 3.21501e-05
9 *23:8 *1002:A 6.51763e-05
10 *23:8 *1004:A 1.32939e-05
11 *23:8 *40:12 5.67058e-05
*RES
1 *1002:X *23:8 41.0036 
2 *23:8 FrameStrobe_O[10] 16.4471 
*END

*D_NET *24 0.00308418
*CONN
*P FrameStrobe_O[11] O
*I *1003:X O *D sky130_fd_sc_hd__clkbuf_4
*CAP
1 FrameStrobe_O[11] 0.000482035
2 *1003:X 0.000337847
3 *24:8 0.000819882
4 FrameStrobe_O[11] FrameStrobe_O[12] 0.00105427
5 FrameStrobe_O[11] FrameStrobe_O[14] 0
6 FrameStrobe_O[11] FrameStrobe_O[9] 0
7 *24:8 *1003:A 2.44913e-05
8 *24:8 *201:18 0.000141052
9 *24:8 *367:20 0.0002246
10 FrameStrobe_O[10] FrameStrobe_O[11] 0
*RES
1 *1003:X *24:8 42.9093 
2 *24:8 FrameStrobe_O[11] 14.7279 
*END

*D_NET *25 0.00295059
*CONN
*P FrameStrobe_O[12] O
*I *1004:X O *D sky130_fd_sc_hd__clkbuf_4
*CAP
1 FrameStrobe_O[12] 0.000436532
2 *1004:X 0.000197687
3 *25:10 0.000634218
4 FrameStrobe_O[12] FrameStrobe_O[13] 0.000427185
5 FrameStrobe_O[12] *364:16 3.21501e-05
6 *25:10 *1004:A 2.65879e-05
7 *25:10 *26:10 0.00014196
8 FrameStrobe_O[10] FrameStrobe_O[12] 0
9 FrameStrobe_O[11] FrameStrobe_O[12] 0.00105427
*RES
1 *1004:X *25:10 41.1486 
2 *25:10 FrameStrobe_O[12] 16.4471 
*END

*D_NET *26 0.0025999
*CONN
*P FrameStrobe_O[13] O
*I *1005:X O *D sky130_fd_sc_hd__clkbuf_4
*CAP
1 FrameStrobe_O[13] 0.000661714
2 *1005:X 0.000196365
3 *26:10 0.000858079
4 FrameStrobe_O[13] FrameStrobe_O[14] 0
5 FrameStrobe_O[13] *364:16 0
6 FrameStrobe_O[13] *367:20 0.000190133
7 *26:10 *1004:A 4.06849e-05
8 *26:10 *1009:A 8.37754e-05
9 FrameStrobe_O[12] FrameStrobe_O[13] 0.000427185
10 *25:10 *26:10 0.00014196
*RES
1 *1005:X *26:10 42.93 
2 *26:10 FrameStrobe_O[13] 16.7993 
*END

*D_NET *27 0.00322781
*CONN
*P FrameStrobe_O[14] O
*I *1006:X O *D sky130_fd_sc_hd__clkbuf_4
*CAP
1 FrameStrobe_O[14] 0.000613737
2 *1006:X 0.000396947
3 *27:10 0.00101068
4 FrameStrobe_O[14] FrameStrobe_O[15] 0.00109443
5 FrameStrobe_O[14] FrameStrobe_O[16] 0
6 FrameStrobe_O[14] *28:12 0
7 FrameStrobe_O[14] *367:20 0
8 *27:10 *28:12 2.98506e-05
9 *27:10 *29:8 3.58084e-06
10 *27:10 *31:14 4.04598e-06
11 *27:10 *367:20 7.45301e-05
12 FrameStrobe_O[11] FrameStrobe_O[14] 0
13 FrameStrobe_O[13] FrameStrobe_O[14] 0
*RES
1 *1006:X *27:10 43.5307 
2 *27:10 FrameStrobe_O[14] 16.4886 
*END

*D_NET *28 0.00308997
*CONN
*P FrameStrobe_O[15] O
*I *1007:X O *D sky130_fd_sc_hd__clkbuf_4
*CAP
1 FrameStrobe_O[15] 0.000454865
2 *1007:X 0.000454838
3 *28:12 0.000909703
4 FrameStrobe_O[15] FrameStrobe_O[16] 0
5 FrameStrobe_O[15] FrameStrobe_O[17] 0
6 *28:12 FrameStrobe_O[17] 7.74052e-05
7 *28:12 *1009:A 1.38709e-05
8 *28:12 *30:12 5.50106e-05
9 FrameStrobe_O[14] FrameStrobe_O[15] 0.00109443
10 FrameStrobe_O[14] *28:12 0
11 *27:10 *28:12 2.98506e-05
*RES
1 *1007:X *28:12 45.4882 
2 *28:12 FrameStrobe_O[15] 14.1582 
*END

*D_NET *29 0.00271871
*CONN
*P FrameStrobe_O[16] O
*I *1008:X O *D sky130_fd_sc_hd__clkbuf_4
*CAP
1 FrameStrobe_O[16] 0.000537585
2 *1008:X 0.000351041
3 *29:8 0.000888626
4 FrameStrobe_O[16] FrameStrobe_O[17] 0.000535667
5 *29:8 *31:14 0.000262858
6 *29:8 *367:20 0.000139357
7 FrameStrobe_O[14] FrameStrobe_O[16] 0
8 FrameStrobe_O[15] FrameStrobe_O[16] 0
9 *27:10 *29:8 3.58084e-06
*RES
1 *1008:X *29:8 42.9093 
2 *29:8 FrameStrobe_O[16] 15.4943 
*END

*D_NET *30 0.00350363
*CONN
*P FrameStrobe_O[17] O
*I *1009:X O *D sky130_fd_sc_hd__clkbuf_4
*CAP
1 FrameStrobe_O[17] 0.000449459
2 *1009:X 0.000160723
3 *30:12 0.000610182
4 FrameStrobe_O[17] FrameStrobe_O[18] 0.000999407
5 FrameStrobe_O[17] *31:14 3.35136e-05
6 FrameStrobe_O[17] *337:20 5.55102e-05
7 *30:12 *819:A 0.000267178
8 *30:12 *1009:A 2.3191e-05
9 *30:12 *31:14 0
10 *30:12 *32:8 0.000225399
11 *30:12 *337:20 1.09783e-05
12 FrameStrobe_O[15] FrameStrobe_O[17] 0
13 FrameStrobe_O[16] FrameStrobe_O[17] 0.000535667
14 *28:12 FrameStrobe_O[17] 7.74052e-05
15 *28:12 *30:12 5.50106e-05
*RES
1 *1009:X *30:12 42.8989 
2 *30:12 FrameStrobe_O[17] 18.0732 
*END

*D_NET *31 0.00322247
*CONN
*P FrameStrobe_O[18] O
*I *1010:X O *D sky130_fd_sc_hd__clkbuf_4
*CAP
1 FrameStrobe_O[18] 0.000211212
2 *1010:X 0.000423186
3 *31:14 0.000634397
4 FrameStrobe_O[18] FrameStrobe_O[19] 0.000359454
5 *31:14 FrameStrobe_O[19] 2.09117e-05
6 *31:14 *337:20 4.45778e-05
7 *31:14 *371:22 0.000228909
8 FrameStrobe_O[17] FrameStrobe_O[18] 0.000999407
9 FrameStrobe_O[17] *31:14 3.35136e-05
10 *27:10 *31:14 4.04598e-06
11 *29:8 *31:14 0.000262858
12 *30:12 *31:14 0
*RES
1 *1010:X *31:14 46.3582 
2 *31:14 FrameStrobe_O[18] 12.7496 
*END

*D_NET *32 0.00301636
*CONN
*P FrameStrobe_O[19] O
*I *918:X O *D sky130_fd_sc_hd__clkbuf_4
*CAP
1 FrameStrobe_O[19] 0.000507527
2 *918:X 0.000309501
3 *32:8 0.000817028
4 FrameStrobe_O[19] *192:26 0.000425232
5 FrameStrobe_O[19] *337:20 0.000227533
6 *32:8 *819:A 0.00012377
7 FrameStrobe_O[18] FrameStrobe_O[19] 0.000359454
8 *30:12 *32:8 0.000225399
9 *31:14 FrameStrobe_O[19] 2.09117e-05
*RES
1 *918:X *32:8 42.9093 
2 *32:8 FrameStrobe_O[19] 16.4471 
*END

*D_NET *33 0.00211541
*CONN
*P FrameStrobe_O[1] O
*I *919:X O *D sky130_fd_sc_hd__clkbuf_4
*CAP
1 FrameStrobe_O[1] 0.000552884
2 *919:X 0.000180552
3 *33:8 0.000733436
4 FrameStrobe_O[1] FrameStrobe_O[2] 0.000533257
5 FrameStrobe_O[1] *235:20 0
6 *33:8 *919:A 9.76261e-05
7 *33:8 *194:16 1.76557e-05
8 Co FrameStrobe_O[1] 0
9 FrameStrobe_O[0] FrameStrobe_O[1] 0
*RES
1 *919:X *33:8 40.5271 