*SPEF "ieee 1481-1999"
*DESIGN "W_IO"
*DATE "11:11:11 Fri 11 11, 1111"
*VENDOR "OpenRCX"
*PROGRAM "Parallel Extraction"
*VERSION "1.0"
*DESIGN_FLOW "NAME_SCOPE LOCAL" "PIN_CAP NONE"
*DIVIDER /
*DELIMITER :
*BUS_DELIMITER []
*T_UNIT 1 NS
*C_UNIT 1 PF
*R_UNIT 1 OHM
*L_UNIT 1 HENRY

*NAME_MAP
*1 A_I_top
*2 A_O_top
*3 A_T_top
*4 A_config_C_bit0
*5 A_config_C_bit1
*6 A_config_C_bit2
*7 A_config_C_bit3
*8 B_I_top
*9 B_O_top
*10 B_T_top
*11 B_config_C_bit0
*12 B_config_C_bit1
*13 B_config_C_bit2
*14 B_config_C_bit3
*15 E1BEG[0]
*16 E1BEG[1]
*17 E1BEG[2]
*18 E1BEG[3]
*19 E2BEG[0]
*20 E2BEG[1]
*21 E2BEG[2]
*22 E2BEG[3]
*23 E2BEG[4]
*24 E2BEG[5]
*25 E2BEG[6]
*26 E2BEG[7]
*27 E2BEGb[0]
*28 E2BEGb[1]
*29 E2BEGb[2]
*30 E2BEGb[3]
*31 E2BEGb[4]
*32 E2BEGb[5]
*33 E2BEGb[6]
*34 E2BEGb[7]
*35 E6BEG[0]
*36 E6BEG[10]
*37 E6BEG[11]
*38 E6BEG[1]
*39 E6BEG[2]
*40 E6BEG[3]
*41 E6BEG[4]
*42 E6BEG[5]
*43 E6BEG[6]
*44 E6BEG[7]
*45 E6BEG[8]
*46 E6BEG[9]
*47 EE4BEG[0]
*48 EE4BEG[10]
*49 EE4BEG[11]
*50 EE4BEG[12]
*51 EE4BEG[13]
*52 EE4BEG[14]
*53 EE4BEG[15]
*54 EE4BEG[1]
*55 EE4BEG[2]
*56 EE4BEG[3]
*57 EE4BEG[4]
*58 EE4BEG[5]
*59 EE4BEG[6]
*60 EE4BEG[7]
*61 EE4BEG[8]
*62 EE4BEG[9]
*63 FrameData[0]
*64 FrameData[10]
*65 FrameData[11]
*66 FrameData[12]
*67 FrameData[13]
*68 FrameData[14]
*69 FrameData[15]
*70 FrameData[16]
*71 FrameData[17]
*72 FrameData[18]
*73 FrameData[19]
*74 FrameData[1]
*75 FrameData[20]
*76 FrameData[21]
*77 FrameData[22]
*78 FrameData[23]
*79 FrameData[24]
*80 FrameData[25]
*81 FrameData[26]
*82 FrameData[27]
*83 FrameData[28]
*84 FrameData[29]
*85 FrameData[2]
*86 FrameData[30]
*87 FrameData[31]
*88 FrameData[3]
*89 FrameData[4]
*90 FrameData[5]
*91 FrameData[6]
*92 FrameData[7]
*93 FrameData[8]
*94 FrameData[9]
*95 FrameData_O[0]
*96 FrameData_O[10]
*97 FrameData_O[11]
*98 FrameData_O[12]
*99 FrameData_O[13]
*100 FrameData_O[14]
*101 FrameData_O[15]
*102 FrameData_O[16]
*103 FrameData_O[17]
*104 FrameData_O[18]
*105 FrameData_O[19]
*106 FrameData_O[1]
*107 FrameData_O[20]
*108 FrameData_O[21]
*109 FrameData_O[22]
*110 FrameData_O[23]
*111 FrameData_O[24]
*112 FrameData_O[25]
*113 FrameData_O[26]
*114 FrameData_O[27]
*115 FrameData_O[28]
*116 FrameData_O[29]
*117 FrameData_O[2]
*118 FrameData_O[30]
*119 FrameData_O[31]
*120 FrameData_O[3]
*121 FrameData_O[4]
*122 FrameData_O[5]
*123 FrameData_O[6]
*124 FrameData_O[7]
*125 FrameData_O[8]
*126 FrameData_O[9]
*127 FrameStrobe[0]
*128 FrameStrobe[10]
*129 FrameStrobe[11]
*130 FrameStrobe[12]
*131 FrameStrobe[13]
*132 FrameStrobe[14]
*133 FrameStrobe[15]
*134 FrameStrobe[16]
*135 FrameStrobe[17]
*136 FrameStrobe[18]
*137 FrameStrobe[19]
*138 FrameStrobe[1]
*139 FrameStrobe[2]
*140 FrameStrobe[3]
*141 FrameStrobe[4]
*142 FrameStrobe[5]
*143 FrameStrobe[6]
*144 FrameStrobe[7]
*145 FrameStrobe[8]
*146 FrameStrobe[9]
*147 FrameStrobe_O[0]
*148 FrameStrobe_O[10]
*149 FrameStrobe_O[11]
*150 FrameStrobe_O[12]
*151 FrameStrobe_O[13]
*152 FrameStrobe_O[14]
*153 FrameStrobe_O[15]
*154 FrameStrobe_O[16]
*155 FrameStrobe_O[17]
*156 FrameStrobe_O[18]
*157 FrameStrobe_O[19]
*158 FrameStrobe_O[1]
*159 FrameStrobe_O[2]
*160 FrameStrobe_O[3]
*161 FrameStrobe_O[4]
*162 FrameStrobe_O[5]
*163 FrameStrobe_O[6]
*164 FrameStrobe_O[7]
*165 FrameStrobe_O[8]
*166 FrameStrobe_O[9]
*167 UserCLK
*168 UserCLKo
*171 W1END[0]
*172 W1END[1]
*173 W1END[2]
*174 W1END[3]
*175 W2END[0]
*176 W2END[1]
*177 W2END[2]
*178 W2END[3]
*179 W2END[4]
*180 W2END[5]
*181 W2END[6]
*182 W2END[7]
*183 W2MID[0]
*184 W2MID[1]
*185 W2MID[2]
*186 W2MID[3]
*187 W2MID[4]
*188 W2MID[5]
*189 W2MID[6]
*190 W2MID[7]
*191 W6END[0]
*192 W6END[10]
*193 W6END[11]
*194 W6END[1]
*195 W6END[2]
*196 W6END[3]
*197 W6END[4]
*198 W6END[5]
*199 W6END[6]
*200 W6END[7]
*201 W6END[8]
*202 W6END[9]
*203 WW4END[0]
*204 WW4END[10]
*205 WW4END[11]
*206 WW4END[12]
*207 WW4END[13]
*208 WW4END[14]
*209 WW4END[15]
*210 WW4END[1]
*211 WW4END[2]
*212 WW4END[3]
*213 WW4END[4]
*214 WW4END[5]
*215 WW4END[6]
*216 WW4END[7]
*217 WW4END[8]
*218 WW4END[9]
*219 Inst_A_IO_1_bidirectional_frame_config_pass\.I
*220 Inst_A_IO_1_bidirectional_frame_config_pass\.O
*221 Inst_A_IO_1_bidirectional_frame_config_pass\.Q
*222 Inst_A_IO_1_bidirectional_frame_config_pass\.T
*223 Inst_A_config_Config_access\.ConfigBits\[0\]
*224 Inst_A_config_Config_access\.ConfigBits\[1\]
*225 Inst_A_config_Config_access\.ConfigBits\[2\]
*226 Inst_A_config_Config_access\.ConfigBits\[3\]
*227 Inst_B_IO_1_bidirectional_frame_config_pass\.I
*228 Inst_B_IO_1_bidirectional_frame_config_pass\.O
*229 Inst_B_IO_1_bidirectional_frame_config_pass\.Q
*230 Inst_B_IO_1_bidirectional_frame_config_pass\.T
*231 Inst_B_config_Config_access\.ConfigBits\[0\]
*232 Inst_B_config_Config_access\.ConfigBits\[1\]
*233 Inst_B_config_Config_access\.ConfigBits\[2\]
*234 Inst_B_config_Config_access\.ConfigBits\[3\]
*235 Inst_W_IO_ConfigMem\.ConfigBits\[100\]
*236 Inst_W_IO_ConfigMem\.ConfigBits\[101\]
*237 Inst_W_IO_ConfigMem\.ConfigBits\[102\]
*238 Inst_W_IO_ConfigMem\.ConfigBits\[103\]
*239 Inst_W_IO_ConfigMem\.ConfigBits\[104\]
*240 Inst_W_IO_ConfigMem\.ConfigBits\[105\]
*241 Inst_W_IO_ConfigMem\.ConfigBits\[106\]
*242 Inst_W_IO_ConfigMem\.ConfigBits\[107\]
*243 Inst_W_IO_ConfigMem\.ConfigBits\[108\]
*244 Inst_W_IO_ConfigMem\.ConfigBits\[109\]
*245 Inst_W_IO_ConfigMem\.ConfigBits\[10\]
*246 Inst_W_IO_ConfigMem\.ConfigBits\[110\]
*247 Inst_W_IO_ConfigMem\.ConfigBits\[111\]
*248 Inst_W_IO_ConfigMem\.ConfigBits\[112\]
*249 Inst_W_IO_ConfigMem\.ConfigBits\[113\]
*250 Inst_W_IO_ConfigMem\.ConfigBits\[11\]
*251 Inst_W_IO_ConfigMem\.ConfigBits\[12\]
*252 Inst_W_IO_ConfigMem\.ConfigBits\[13\]
*253 Inst_W_IO_ConfigMem\.ConfigBits\[14\]
*254 Inst_W_IO_ConfigMem\.ConfigBits\[15\]
*255 Inst_W_IO_ConfigMem\.ConfigBits\[16\]
*256 Inst_W_IO_ConfigMem\.ConfigBits\[17\]
*257 Inst_W_IO_ConfigMem\.ConfigBits\[18\]
*258 Inst_W_IO_ConfigMem\.ConfigBits\[19\]
*259 Inst_W_IO_ConfigMem\.ConfigBits\[20\]
*260 Inst_W_IO_ConfigMem\.ConfigBits\[21\]
*261 Inst_W_IO_ConfigMem\.ConfigBits\[22\]
*262 Inst_W_IO_ConfigMem\.ConfigBits\[23\]
*263 Inst_W_IO_ConfigMem\.ConfigBits\[24\]
*264 Inst_W_IO_ConfigMem\.ConfigBits\[25\]
*265 Inst_W_IO_ConfigMem\.ConfigBits\[26\]
*266 Inst_W_IO_ConfigMem\.ConfigBits\[27\]
*267 Inst_W_IO_ConfigMem\.ConfigBits\[28\]
*268 Inst_W_IO_ConfigMem\.ConfigBits\[29\]
*269 Inst_W_IO_ConfigMem\.ConfigBits\[30\]
*270 Inst_W_IO_ConfigMem\.ConfigBits\[31\]
*271 Inst_W_IO_ConfigMem\.ConfigBits\[32\]
*272 Inst_W_IO_ConfigMem\.ConfigBits\[33\]
*273 Inst_W_IO_ConfigMem\.ConfigBits\[34\]
*274 Inst_W_IO_ConfigMem\.ConfigBits\[35\]
*275 Inst_W_IO_ConfigMem\.ConfigBits\[36\]
*276 Inst_W_IO_ConfigMem\.ConfigBits\[37\]
*277 Inst_W_IO_ConfigMem\.ConfigBits\[38\]
*278 Inst_W_IO_ConfigMem\.ConfigBits\[39\]
*279 Inst_W_IO_ConfigMem\.ConfigBits\[40\]
*280 Inst_W_IO_ConfigMem\.ConfigBits\[41\]
*281 Inst_W_IO_ConfigMem\.ConfigBits\[42\]
*282 Inst_W_IO_ConfigMem\.ConfigBits\[43\]
*283 Inst_W_IO_ConfigMem\.ConfigBits\[44\]
*284 Inst_W_IO_ConfigMem\.ConfigBits\[45\]
*285 Inst_W_IO_ConfigMem\.ConfigBits\[46\]
*286 Inst_W_IO_ConfigMem\.ConfigBits\[47\]
*287 Inst_W_IO_ConfigMem\.ConfigBits\[48\]
*288 Inst_W_IO_ConfigMem\.ConfigBits\[49\]
*289 Inst_W_IO_ConfigMem\.ConfigBits\[50\]
*290 Inst_W_IO_ConfigMem\.ConfigBits\[51\]
*291 Inst_W_IO_ConfigMem\.ConfigBits\[52\]
*292 Inst_W_IO_ConfigMem\.ConfigBits\[53\]
*293 Inst_W_IO_ConfigMem\.ConfigBits\[54\]
*294 Inst_W_IO_ConfigMem\.ConfigBits\[55\]
*295 Inst_W_IO_ConfigMem\.ConfigBits\[56\]
*296 Inst_W_IO_ConfigMem\.ConfigBits\[57\]
*297 Inst_W_IO_ConfigMem\.ConfigBits\[58\]
*298 Inst_W_IO_ConfigMem\.ConfigBits\[59\]
*299 Inst_W_IO_ConfigMem\.ConfigBits\[60\]
*300 Inst_W_IO_ConfigMem\.ConfigBits\[61\]
*301 Inst_W_IO_ConfigMem\.ConfigBits\[62\]
*302 Inst_W_IO_ConfigMem\.ConfigBits\[63\]
*303 Inst_W_IO_ConfigMem\.ConfigBits\[64\]
*304 Inst_W_IO_ConfigMem\.ConfigBits\[65\]
*305 Inst_W_IO_ConfigMem\.ConfigBits\[66\]
*306 Inst_W_IO_ConfigMem\.ConfigBits\[67\]
*307 Inst_W_IO_ConfigMem\.ConfigBits\[68\]
*308 Inst_W_IO_ConfigMem\.ConfigBits\[69\]
*309 Inst_W_IO_ConfigMem\.ConfigBits\[70\]
*310 Inst_W_IO_ConfigMem\.ConfigBits\[71\]
*311 Inst_W_IO_ConfigMem\.ConfigBits\[72\]
*312 Inst_W_IO_ConfigMem\.ConfigBits\[73\]
*313 Inst_W_IO_ConfigMem\.ConfigBits\[74\]
*314 Inst_W_IO_ConfigMem\.ConfigBits\[75\]
*315 Inst_W_IO_ConfigMem\.ConfigBits\[76\]
*316 Inst_W_IO_ConfigMem\.ConfigBits\[77\]
*317 Inst_W_IO_ConfigMem\.ConfigBits\[78\]
*318 Inst_W_IO_ConfigMem\.ConfigBits\[79\]
*319 Inst_W_IO_ConfigMem\.ConfigBits\[80\]
*320 Inst_W_IO_ConfigMem\.ConfigBits\[81\]
*321 Inst_W_IO_ConfigMem\.ConfigBits\[82\]
*322 Inst_W_IO_ConfigMem\.ConfigBits\[83\]
*323 Inst_W_IO_ConfigMem\.ConfigBits\[84\]
*324 Inst_W_IO_ConfigMem\.ConfigBits\[85\]
*325 Inst_W_IO_ConfigMem\.ConfigBits\[86\]
*326 Inst_W_IO_ConfigMem\.ConfigBits\[87\]
*327 Inst_W_IO_ConfigMem\.ConfigBits\[88\]
*328 Inst_W_IO_ConfigMem\.ConfigBits\[89\]
*329 Inst_W_IO_ConfigMem\.ConfigBits\[8\]
*330 Inst_W_IO_ConfigMem\.ConfigBits\[90\]
*331 Inst_W_IO_ConfigMem\.ConfigBits\[91\]
*332 Inst_W_IO_ConfigMem\.ConfigBits\[92\]
*333 Inst_W_IO_ConfigMem\.ConfigBits\[93\]
*334 Inst_W_IO_ConfigMem\.ConfigBits\[94\]
*335 Inst_W_IO_ConfigMem\.ConfigBits\[95\]
*336 Inst_W_IO_ConfigMem\.ConfigBits\[96\]
*337 Inst_W_IO_ConfigMem\.ConfigBits\[97\]
*338 Inst_W_IO_ConfigMem\.ConfigBits\[98\]
*339 Inst_W_IO_ConfigMem\.ConfigBits\[99\]
*340 Inst_W_IO_ConfigMem\.ConfigBits\[9\]
*341 Inst_W_IO_ConfigMem\.ConfigBits_N\[0\]
*342 Inst_W_IO_ConfigMem\.ConfigBits_N\[100\]
*343 Inst_W_IO_ConfigMem\.ConfigBits_N\[101\]
*344 Inst_W_IO_ConfigMem\.ConfigBits_N\[102\]
*345 Inst_W_IO_ConfigMem\.ConfigBits_N\[103\]
*346 Inst_W_IO_ConfigMem\.ConfigBits_N\[104\]
*347 Inst_W_IO_ConfigMem\.ConfigBits_N\[105\]
*348 Inst_W_IO_ConfigMem\.ConfigBits_N\[106\]
*349 Inst_W_IO_ConfigMem\.ConfigBits_N\[107\]
*350 Inst_W_IO_ConfigMem\.ConfigBits_N\[108\]
*351 Inst_W_IO_ConfigMem\.ConfigBits_N\[109\]
*352 Inst_W_IO_ConfigMem\.ConfigBits_N\[10\]
*353 Inst_W_IO_ConfigMem\.ConfigBits_N\[110\]
*354 Inst_W_IO_ConfigMem\.ConfigBits_N\[111\]
*355 Inst_W_IO_ConfigMem\.ConfigBits_N\[112\]
*356 Inst_W_IO_ConfigMem\.ConfigBits_N\[113\]
*357 Inst_W_IO_ConfigMem\.ConfigBits_N\[11\]
*358 Inst_W_IO_ConfigMem\.ConfigBits_N\[12\]
*359 Inst_W_IO_ConfigMem\.ConfigBits_N\[13\]
*360 Inst_W_IO_ConfigMem\.ConfigBits_N\[14\]
*361 Inst_W_IO_ConfigMem\.ConfigBits_N\[15\]
*362 Inst_W_IO_ConfigMem\.ConfigBits_N\[16\]
*363 Inst_W_IO_ConfigMem\.ConfigBits_N\[17\]
*364 Inst_W_IO_ConfigMem\.ConfigBits_N\[18\]
*365 Inst_W_IO_ConfigMem\.ConfigBits_N\[19\]
*366 Inst_W_IO_ConfigMem\.ConfigBits_N\[1\]
*367 Inst_W_IO_ConfigMem\.ConfigBits_N\[20\]
*368 Inst_W_IO_ConfigMem\.ConfigBits_N\[21\]
*369 Inst_W_IO_ConfigMem\.ConfigBits_N\[22\]
*370 Inst_W_IO_ConfigMem\.ConfigBits_N\[23\]
*371 Inst_W_IO_ConfigMem\.ConfigBits_N\[24\]
*372 Inst_W_IO_ConfigMem\.ConfigBits_N\[25\]
*373 Inst_W_IO_ConfigMem\.ConfigBits_N\[26\]
*374 Inst_W_IO_ConfigMem\.ConfigBits_N\[27\]
*375 Inst_W_IO_ConfigMem\.ConfigBits_N\[28\]
*376 Inst_W_IO_ConfigMem\.ConfigBits_N\[29\]
*377 Inst_W_IO_ConfigMem\.ConfigBits_N\[2\]
*378 Inst_W_IO_ConfigMem\.ConfigBits_N\[30\]
*379 Inst_W_IO_ConfigMem\.ConfigBits_N\[31\]
*380 Inst_W_IO_ConfigMem\.ConfigBits_N\[32\]
*381 Inst_W_IO_ConfigMem\.ConfigBits_N\[33\]
*382 Inst_W_IO_ConfigMem\.ConfigBits_N\[34\]
*383 Inst_W_IO_ConfigMem\.ConfigBits_N\[35\]
*384 Inst_W_IO_ConfigMem\.ConfigBits_N\[36\]
*385 Inst_W_IO_ConfigMem\.ConfigBits_N\[37\]
*386 Inst_W_IO_ConfigMem\.ConfigBits_N\[38\]
*387 Inst_W_IO_ConfigMem\.ConfigBits_N\[39\]
*388 Inst_W_IO_ConfigMem\.ConfigBits_N\[3\]
*389 Inst_W_IO_ConfigMem\.ConfigBits_N\[40\]
*390 Inst_W_IO_ConfigMem\.ConfigBits_N\[41\]
*391 Inst_W_IO_ConfigMem\.ConfigBits_N\[42\]
*392 Inst_W_IO_ConfigMem\.ConfigBits_N\[43\]
*393 Inst_W_IO_ConfigMem\.ConfigBits_N\[44\]
*394 Inst_W_IO_ConfigMem\.ConfigBits_N\[45\]
*395 Inst_W_IO_ConfigMem\.ConfigBits_N\[46\]
*396 Inst_W_IO_ConfigMem\.ConfigBits_N\[47\]
*397 Inst_W_IO_ConfigMem\.ConfigBits_N\[48\]
*398 Inst_W_IO_ConfigMem\.ConfigBits_N\[49\]
*399 Inst_W_IO_ConfigMem\.ConfigBits_N\[4\]
*400 Inst_W_IO_ConfigMem\.ConfigBits_N\[50\]
*401 Inst_W_IO_ConfigMem\.ConfigBits_N\[51\]
*402 Inst_W_IO_ConfigMem\.ConfigBits_N\[52\]
*403 Inst_W_IO_ConfigMem\.ConfigBits_N\[53\]
*404 Inst_W_IO_ConfigMem\.ConfigBits_N\[54\]
*405 Inst_W_IO_ConfigMem\.ConfigBits_N\[55\]
*406 Inst_W_IO_ConfigMem\.ConfigBits_N\[56\]
*407 Inst_W_IO_ConfigMem\.ConfigBits_N\[57\]
*408 Inst_W_IO_ConfigMem\.ConfigBits_N\[58\]
*409 Inst_W_IO_ConfigMem\.ConfigBits_N\[59\]
*410 Inst_W_IO_ConfigMem\.ConfigBits_N\[5\]
*411 Inst_W_IO_ConfigMem\.ConfigBits_N\[60\]
*412 Inst_W_IO_ConfigMem\.ConfigBits_N\[61\]
*413 Inst_W_IO_ConfigMem\.ConfigBits_N\[62\]
*414 Inst_W_IO_ConfigMem\.ConfigBits_N\[63\]
*415 Inst_W_IO_ConfigMem\.ConfigBits_N\[64\]
*416 Inst_W_IO_ConfigMem\.ConfigBits_N\[65\]
*417 Inst_W_IO_ConfigMem\.ConfigBits_N\[66\]
*418 Inst_W_IO_ConfigMem\.ConfigBits_N\[67\]
*419 Inst_W_IO_ConfigMem\.ConfigBits_N\[68\]
*420 Inst_W_IO_ConfigMem\.ConfigBits_N\[69\]
*421 Inst_W_IO_ConfigMem\.ConfigBits_N\[6\]
*422 Inst_W_IO_ConfigMem\.ConfigBits_N\[70\]
*423 Inst_W_IO_ConfigMem\.ConfigBits_N\[71\]
*424 Inst_W_IO_ConfigMem\.ConfigBits_N\[72\]
*425 Inst_W_IO_ConfigMem\.ConfigBits_N\[73\]
*426 Inst_W_IO_ConfigMem\.ConfigBits_N\[74\]
*427 Inst_W_IO_ConfigMem\.ConfigBits_N\[75\]
*428 Inst_W_IO_ConfigMem\.ConfigBits_N\[76\]
*429 Inst_W_IO_ConfigMem\.ConfigBits_N\[77\]
*430 Inst_W_IO_ConfigMem\.ConfigBits_N\[78\]
*431 Inst_W_IO_ConfigMem\.ConfigBits_N\[79\]
*432 Inst_W_IO_ConfigMem\.ConfigBits_N\[7\]
*433 Inst_W_IO_ConfigMem\.ConfigBits_N\[80\]
*434 Inst_W_IO_ConfigMem\.ConfigBits_N\[81\]
*435 Inst_W_IO_ConfigMem\.ConfigBits_N\[82\]
*436 Inst_W_IO_ConfigMem\.ConfigBits_N\[83\]
*437 Inst_W_IO_ConfigMem\.ConfigBits_N\[84\]
*438 Inst_W_IO_ConfigMem\.ConfigBits_N\[85\]
*439 Inst_W_IO_ConfigMem\.ConfigBits_N\[86\]
*440 Inst_W_IO_ConfigMem\.ConfigBits_N\[87\]
*441 Inst_W_IO_ConfigMem\.ConfigBits_N\[88\]
*442 Inst_W_IO_ConfigMem\.ConfigBits_N\[89\]
*443 Inst_W_IO_ConfigMem\.ConfigBits_N\[8\]
*444 Inst_W_IO_ConfigMem\.ConfigBits_N\[90\]
*445 Inst_W_IO_ConfigMem\.ConfigBits_N\[91\]
*446 Inst_W_IO_ConfigMem\.ConfigBits_N\[92\]
*447 Inst_W_IO_ConfigMem\.ConfigBits_N\[93\]
*448 Inst_W_IO_ConfigMem\.ConfigBits_N\[94\]
*449 Inst_W_IO_ConfigMem\.ConfigBits_N\[95\]
*450 Inst_W_IO_ConfigMem\.ConfigBits_N\[96\]
*451 Inst_W_IO_ConfigMem\.ConfigBits_N\[97\]
*452 Inst_W_IO_ConfigMem\.ConfigBits_N\[98\]
*453 Inst_W_IO_ConfigMem\.ConfigBits_N\[99\]
*454 Inst_W_IO_ConfigMem\.ConfigBits_N\[9\]
*455 Inst_W_IO_switch_matrix\.E1BEG0
*456 Inst_W_IO_switch_matrix\.E1BEG1
*457 Inst_W_IO_switch_matrix\.E1BEG2
*458 Inst_W_IO_switch_matrix\.E1BEG3
*459 Inst_W_IO_switch_matrix\.E2BEG0
*460 Inst_W_IO_switch_matrix\.E2BEG1
*461 Inst_W_IO_switch_matrix\.E2BEG2
*462 Inst_W_IO_switch_matrix\.E2BEG3
*463 Inst_W_IO_switch_matrix\.E2BEG4
*464 Inst_W_IO_switch_matrix\.E2BEG5
*465 Inst_W_IO_switch_matrix\.E2BEG6
*466 Inst_W_IO_switch_matrix\.E2BEG7
*467 Inst_W_IO_switch_matrix\.E2BEGb0
*468 Inst_W_IO_switch_matrix\.E2BEGb1
*469 Inst_W_IO_switch_matrix\.E2BEGb2
*470 Inst_W_IO_switch_matrix\.E2BEGb3
*471 Inst_W_IO_switch_matrix\.E2BEGb4
*472 Inst_W_IO_switch_matrix\.E2BEGb5
*473 Inst_W_IO_switch_matrix\.E2BEGb6
*474 Inst_W_IO_switch_matrix\.E2BEGb7
*475 Inst_W_IO_switch_matrix\.E6BEG0
*476 Inst_W_IO_switch_matrix\.E6BEG1
*477 Inst_W_IO_switch_matrix\.E6BEG10
*478 Inst_W_IO_switch_matrix\.E6BEG11
*479 Inst_W_IO_switch_matrix\.E6BEG2
*480 Inst_W_IO_switch_matrix\.E6BEG3
*481 Inst_W_IO_switch_matrix\.E6BEG4
*482 Inst_W_IO_switch_matrix\.E6BEG5
*483 Inst_W_IO_switch_matrix\.E6BEG6
*484 Inst_W_IO_switch_matrix\.E6BEG7
*485 Inst_W_IO_switch_matrix\.E6BEG8
*486 Inst_W_IO_switch_matrix\.E6BEG9
*487 Inst_W_IO_switch_matrix\.EE4BEG0
*488 Inst_W_IO_switch_matrix\.EE4BEG1
*489 Inst_W_IO_switch_matrix\.EE4BEG10
*490 Inst_W_IO_switch_matrix\.EE4BEG11
*491 Inst_W_IO_switch_matrix\.EE4BEG12
*492 Inst_W_IO_switch_matrix\.EE4BEG13
*493 Inst_W_IO_switch_matrix\.EE4BEG14
*494 Inst_W_IO_switch_matrix\.EE4BEG15
*495 Inst_W_IO_switch_matrix\.EE4BEG2
*496 Inst_W_IO_switch_matrix\.EE4BEG3
*497 Inst_W_IO_switch_matrix\.EE4BEG4
*498 Inst_W_IO_switch_matrix\.EE4BEG5
*499 Inst_W_IO_switch_matrix\.EE4BEG6
*500 Inst_W_IO_switch_matrix\.EE4BEG7
*501 Inst_W_IO_switch_matrix\.EE4BEG8
*502 Inst_W_IO_switch_matrix\.EE4BEG9
*503 Inst_W_IO_switch_matrix\.inst_cus_mux161_buf_A_I\.cus_mux41_buf_out0
*504 Inst_W_IO_switch_matrix\.inst_cus_mux161_buf_A_I\.cus_mux41_buf_out1
*505 Inst_W_IO_switch_matrix\.inst_cus_mux161_buf_A_I\.cus_mux41_buf_out2
*506 Inst_W_IO_switch_matrix\.inst_cus_mux161_buf_A_I\.cus_mux41_buf_out3
*507 Inst_W_IO_switch_matrix\.inst_cus_mux161_buf_B_I\.cus_mux41_buf_out0
*508 Inst_W_IO_switch_matrix\.inst_cus_mux161_buf_B_I\.cus_mux41_buf_out1
*509 Inst_W_IO_switch_matrix\.inst_cus_mux161_buf_B_I\.cus_mux41_buf_out2
*510 Inst_W_IO_switch_matrix\.inst_cus_mux161_buf_B_I\.cus_mux41_buf_out3
*511 Inst_W_IO_switch_matrix\.inst_cus_mux21_E1BEG0\.AIN\[0\]
*512 Inst_W_IO_switch_matrix\.inst_cus_mux21_E1BEG0\.AIN\[1\]
*513 Inst_W_IO_switch_matrix\.inst_cus_mux21_E1BEG0\._0_
*514 Inst_W_IO_switch_matrix\.inst_cus_mux21_E1BEG0\._1_
*515 Inst_W_IO_switch_matrix\.inst_cus_mux21_E1BEG1\.AIN\[0\]
*516 Inst_W_IO_switch_matrix\.inst_cus_mux21_E1BEG1\.AIN\[1\]
*517 Inst_W_IO_switch_matrix\.inst_cus_mux21_E1BEG1\._0_
*518 Inst_W_IO_switch_matrix\.inst_cus_mux21_E1BEG1\._1_
*519 Inst_W_IO_switch_matrix\.inst_cus_mux21_E1BEG2\.AIN\[0\]
*520 Inst_W_IO_switch_matrix\.inst_cus_mux21_E1BEG2\.AIN\[1\]
*521 Inst_W_IO_switch_matrix\.inst_cus_mux21_E1BEG2\._0_
*522 Inst_W_IO_switch_matrix\.inst_cus_mux21_E1BEG2\._1_
*523 Inst_W_IO_switch_matrix\.inst_cus_mux21_E1BEG3\.AIN\[0\]
*524 Inst_W_IO_switch_matrix\.inst_cus_mux21_E1BEG3\.AIN\[1\]
*525 Inst_W_IO_switch_matrix\.inst_cus_mux21_E1BEG3\._0_
*526 Inst_W_IO_switch_matrix\.inst_cus_mux21_E1BEG3\._1_
*527 Inst_W_IO_switch_matrix\.inst_cus_mux81_buf_A_T\.cus_mux21_inst\.A0
*528 Inst_W_IO_switch_matrix\.inst_cus_mux81_buf_A_T\.cus_mux21_inst\.A1
*529 Inst_W_IO_switch_matrix\.inst_cus_mux81_buf_A_T\.cus_mux21_inst\.AIN\[0\]
*530 Inst_W_IO_switch_matrix\.inst_cus_mux81_buf_A_T\.cus_mux21_inst\.AIN\[1\]
*531 Inst_W_IO_switch_matrix\.inst_cus_mux81_buf_A_T\.cus_mux21_inst\._0_
*532 Inst_W_IO_switch_matrix\.inst_cus_mux81_buf_A_T\.cus_mux21_inst\._1_
*533 Inst_W_IO_switch_matrix\.inst_cus_mux81_buf_B_T\.cus_mux21_inst\.A0
*534 Inst_W_IO_switch_matrix\.inst_cus_mux81_buf_B_T\.cus_mux21_inst\.A1
*535 Inst_W_IO_switch_matrix\.inst_cus_mux81_buf_B_T\.cus_mux21_inst\.AIN\[0\]
*536 Inst_W_IO_switch_matrix\.inst_cus_mux81_buf_B_T\.cus_mux21_inst\.AIN\[1\]
*537 Inst_W_IO_switch_matrix\.inst_cus_mux81_buf_B_T\.cus_mux21_inst\._0_
*538 Inst_W_IO_switch_matrix\.inst_cus_mux81_buf_B_T\.cus_mux21_inst\._1_
*539 data_inbuf_0\.X
*540 data_inbuf_1\.X
*541 data_inbuf_10\.X
*542 data_inbuf_11\.X
*543 data_inbuf_12\.X
*544 data_inbuf_13\.X
*545 data_inbuf_14\.X
*546 data_inbuf_15\.X
*547 data_inbuf_16\.X
*548 data_inbuf_17\.X
*549 data_inbuf_18\.X
*550 data_inbuf_19\.X
*551 data_inbuf_2\.X
*552 data_inbuf_20\.X
*553 data_inbuf_21\.X
*554 data_inbuf_22\.X
*555 data_inbuf_23\.X
*556 data_inbuf_24\.X
*557 data_inbuf_25\.X
*558 data_inbuf_26\.X
*559 data_inbuf_27\.X
*560 data_inbuf_28\.X
*561 data_inbuf_29\.X
*562 data_inbuf_3\.X
*563 data_inbuf_30\.X
*564 data_inbuf_31\.X
*565 data_inbuf_4\.X
*566 data_inbuf_5\.X
*567 data_inbuf_6\.X
*568 data_inbuf_7\.X
*569 data_inbuf_8\.X
*570 data_inbuf_9\.X
*571 data_outbuf_0\.X
*572 data_outbuf_1\.X
*573 data_outbuf_10\.X
*574 data_outbuf_11\.X
*575 data_outbuf_12\.X
*576 data_outbuf_13\.X
*577 data_outbuf_14\.X
*578 data_outbuf_15\.X
*579 data_outbuf_16\.X
*580 data_outbuf_17\.X
*581 data_outbuf_18\.X
*582 data_outbuf_19\.X
*583 data_outbuf_2\.X
*584 data_outbuf_20\.X
*585 data_outbuf_21\.X
*586 data_outbuf_22\.X
*587 data_outbuf_23\.X
*588 data_outbuf_24\.X
*589 data_outbuf_25\.X
*590 data_outbuf_26\.X
*591 data_outbuf_27\.X
*592 data_outbuf_28\.X
*593 data_outbuf_29\.X
*594 data_outbuf_3\.X
*595 data_outbuf_30\.X
*596 data_outbuf_31\.X
*597 data_outbuf_4\.X
*598 data_outbuf_5\.X
*599 data_outbuf_6\.X
*600 data_outbuf_7\.X
*601 data_outbuf_8\.X
*602 data_outbuf_9\.X
*603 net1
*604 net10
*605 net100
*606 net101
*607 net102
*608 net103
*609 net104
*610 net105
*611 net106
*612 net107
*613 net108
*614 net109
*615 net11
*616 net110
*617 net111
*618 net112
*619 net113
*620 net114
*621 net115
*622 net116
*623 net117
*624 net118
*625 net119
*626 net12
*627 net120
*628 net121
*629 net122
*630 net123
*631 net124
*632 net125
*633 net126
*634 net127
*635 net128
*636 net129
*637 net13
*638 net130
*639 net131
*640 net132
*641 net133
*642 net134
*643 net135
*644 net136
*645 net137
*646 net138
*647 net139
*648 net14
*649 net140
*650 net141
*651 net142
*652 net143
*653 net144
*654 net145
*655 net146
*656 net147
*657 net148
*658 net149
*659 net15
*660 net150
*661 net151
*662 net152
*663 net153
*664 net154
*665 net155
*666 net156
*667 net157
*668 net158
*669 net159
*670 net16
*671 net160
*672 net161
*673 net162
*674 net163
*675 net164
*676 net165
*677 net166
*678 net167
*679 net168
*680 net169
*681 net17
*682 net170
*683 net171
*684 net172
*685 net173
*686 net174
*687 net175
*688 net176
*689 net177
*690 net178
*691 net179
*692 net18
*693 net180
*694 net181
*695 net182
*696 net183
*697 net184
*698 net185
*699 net186
*700 net187
*701 net188
*702 net189
*703 net19
*704 net190
*705 net191
*706 net192
*707 net193
*708 net194
*709 net195
*710 net196
*711 net197
*712 net198
*713 net199
*714 net2
*715 net20
*716 net200
*717 net201
*718 net202
*719 net203
*720 net204
*721 net205
*722 net206
*723 net207
*724 net208
*725 net209
*726 net21
*727 net210
*728 net211
*729 net212
*730 net213
*731 net214
*732 net215
*733 net216
*734 net217
*735 net218
*736 net219
*737 net22
*738 net23
*739 net24
*740 net25
*741 net26
*742 net27
*743 net28
*744 net29
*745 net3
*746 net30
*747 net31
*748 net32
*749 net33
*750 net34
*751 net35
*752 net36
*753 net37
*754 net38
*755 net39
*756 net4
*757 net40
*758 net41
*759 net42
*760 net43
*761 net44
*762 net45
*763 net46
*764 net47
*765 net48
*766 net49
*767 net5
*768 net50
*769 net51
*770 net52
*771 net53
*772 net54
*773 net55
*774 net56
*775 net57
*776 net58
*777 net59
*778 net6
*779 net60
*780 net61
*781 net62
*782 net63
*783 net64
*784 net65
*785 net66
*786 net67
*787 net68
*788 net69
*789 net7
*790 net70
*791 net71
*792 net72
*793 net73
*794 net74
*795 net75
*796 net76
*797 net77
*798 net78
*799 net79
*800 net8
*801 net80
*802 net81
*803 net82
*804 net83
*805 net84
*806 net85
*807 net86
*808 net87
*809 net88
*810 net89
*811 net9
*812 net90
*813 net91
*814 net92
*815 net93
*816 net94
*817 net95
*818 net96
*819 net97
*820 net98
*821 net99
*822 strobe_inbuf_0\.X
*823 strobe_inbuf_1\.X
*824 strobe_inbuf_10\.X
*825 strobe_inbuf_11\.X
*826 strobe_inbuf_12\.X
*827 strobe_inbuf_13\.X
*828 strobe_inbuf_14\.X
*829 strobe_inbuf_15\.X
*830 strobe_inbuf_16\.X
*831 strobe_inbuf_17\.X
*832 strobe_inbuf_18\.X
*833 strobe_inbuf_19\.X
*834 strobe_inbuf_2\.X
*835 strobe_inbuf_3\.X
*836 strobe_inbuf_4\.X
*837 strobe_inbuf_5\.X
*838 strobe_inbuf_6\.X
*839 strobe_inbuf_7\.X
*840 strobe_inbuf_8\.X
*841 strobe_inbuf_9\.X
*842 strobe_outbuf_0\.X
*843 strobe_outbuf_1\.X
*844 strobe_outbuf_10\.X
*845 strobe_outbuf_11\.X
*846 strobe_outbuf_12\.X
*847 strobe_outbuf_13\.X
*848 strobe_outbuf_14\.X
*849 strobe_outbuf_15\.X
*850 strobe_outbuf_16\.X
*851 strobe_outbuf_17\.X
*852 strobe_outbuf_18\.X
*853 strobe_outbuf_19\.X
*854 strobe_outbuf_2\.X
*855 strobe_outbuf_3\.X
*856 strobe_outbuf_4\.X
*857 strobe_outbuf_5\.X
*858 strobe_outbuf_6\.X
*859 strobe_outbuf_7\.X
*860 strobe_outbuf_8\.X
*861 strobe_outbuf_9\.X
*862 ANTENNA_1
*863 ANTENNA_2
*864 FILLER_0_0_102
*865 FILLER_0_0_106
*866 FILLER_0_0_110
*867 FILLER_0_0_113
*868 FILLER_0_0_118
*869 FILLER_0_0_122
*870 FILLER_0_0_126
*871 FILLER_0_0_145
*872 FILLER_0_0_15
*873 FILLER_0_0_38
*874 FILLER_0_0_42
*875 FILLER_0_0_46
*876 FILLER_0_0_50
*877 FILLER_0_0_54
*878 FILLER_0_0_57
*879 FILLER_0_0_62
*880 FILLER_0_0_66
*881 FILLER_0_0_70
*882 FILLER_0_0_74
*883 FILLER_0_0_78
*884 FILLER_0_0_88
*885 FILLER_0_0_94
*886 FILLER_0_0_98
*887 FILLER_0_10_115
*888 FILLER_0_10_121
*889 FILLER_0_10_141
*890 FILLER_0_10_18
*891 FILLER_0_10_26
*892 FILLER_0_10_29
*893 FILLER_0_10_41
*894 FILLER_0_10_53
*895 FILLER_0_10_65
*896 FILLER_0_10_77
*897 FILLER_0_10_83
*898 FILLER_0_10_85
*899 FILLER_0_10_93
*900 FILLER_0_11_113
*901 FILLER_0_11_12
*902 FILLER_0_11_24
*903 FILLER_0_11_36
*904 FILLER_0_11_48
*905 FILLER_0_11_57
*906 FILLER_0_11_95
*907 FILLER_0_12_130
*908 FILLER_0_12_141
*909 FILLER_0_12_21
*910 FILLER_0_12_27
*911 FILLER_0_12_29
*912 FILLER_0_12_41
*913 FILLER_0_12_53
*914 FILLER_0_12_85
*915 FILLER_0_12_89
*916 FILLER_0_12_9
*917 FILLER_0_13_111
*918 FILLER_0_13_134
*919 FILLER_0_13_138
*920 FILLER_0_13_14
*921 FILLER_0_13_26
*922 FILLER_0_13_3
*923 FILLER_0_13_38
*924 FILLER_0_13_67
*925 FILLER_0_13_75
*926 FILLER_0_13_84
*927 FILLER_0_14_141
*928 FILLER_0_14_18
*929 FILLER_0_14_26
*930 FILLER_0_14_29
*931 FILLER_0_14_41
*932 FILLER_0_14_53
*933 FILLER_0_14_65
*934 FILLER_0_14_77
*935 FILLER_0_14_83
*936 FILLER_0_15_113
*937 FILLER_0_15_14
*938 FILLER_0_15_26
*939 FILLER_0_15_3
*940 FILLER_0_15_38
*941 FILLER_0_15_42
*942 FILLER_0_15_47
*943 FILLER_0_15_51
*944 FILLER_0_15_55
*945 FILLER_0_15_57
*946 FILLER_0_15_86
*947 FILLER_0_15_90
*948 FILLER_0_16_141
*949 FILLER_0_16_18
*950 FILLER_0_16_26
*951 FILLER_0_16_29
*952 FILLER_0_16_41
*953 FILLER_0_16_88
*954 FILLER_0_17_113
*955 FILLER_0_17_12
*956 FILLER_0_17_142
*957 FILLER_0_17_24
*958 FILLER_0_17_32
*959 FILLER_0_17_49
*960 FILLER_0_17_53
*961 FILLER_0_17_57
*962 FILLER_0_17_74
*963 FILLER_0_17_80
*964 FILLER_0_17_92
*965 FILLER_0_17_96
*966 FILLER_0_18_105
*967 FILLER_0_18_141
*968 FILLER_0_18_15
*969 FILLER_0_18_27
*970 FILLER_0_18_29
*971 FILLER_0_18_3
*972 FILLER_0_18_41
*973 FILLER_0_18_64
*974 FILLER_0_18_76
*975 FILLER_0_18_85
*976 FILLER_0_18_97
*977 FILLER_0_19_111
*978 FILLER_0_19_113
*979 FILLER_0_19_145
*980 FILLER_0_19_21
*981 FILLER_0_19_33
*982 FILLER_0_19_45
*983 FILLER_0_19_53
*984 FILLER_0_19_57
*985 FILLER_0_19_76
*986 FILLER_0_19_9
*987 FILLER_0_19_99
*988 FILLER_0_1_100
*989 FILLER_0_1_108
*990 FILLER_0_1_117
*991 FILLER_0_1_124
*992 FILLER_0_1_132
*993 FILLER_0_1_144
*994 FILLER_0_1_23
*995 FILLER_0_1_3
*996 FILLER_0_1_31
*997 FILLER_0_1_35
*998 FILLER_0_1_45
*999 FILLER_0_1_53
*1000 FILLER_0_1_61
*1001 FILLER_0_1_68
*1002 FILLER_0_1_76
*1003 FILLER_0_1_84
*1004 FILLER_0_1_92
*1005 FILLER_0_20_110
*1006 FILLER_0_20_135
*1007 FILLER_0_20_141
*1008 FILLER_0_20_16
*1009 FILLER_0_20_29
*1010 FILLER_0_20_41
*1011 FILLER_0_20_53
*1012 FILLER_0_20_61
*1013 FILLER_0_20_85
*1014 FILLER_0_20_9
*1015 FILLER_0_20_91
*1016 FILLER_0_21_106
*1017 FILLER_0_21_113
*1018 FILLER_0_21_18
*1019 FILLER_0_21_30
*1020 FILLER_0_21_42
*1021 FILLER_0_21_54
*1022 FILLER_0_21_57
*1023 FILLER_0_21_69
*1024 FILLER_0_22_108
*1025 FILLER_0_22_116
*1026 FILLER_0_22_144
*1027 FILLER_0_22_18
*1028 FILLER_0_22_26
*1029 FILLER_0_22_29
*1030 FILLER_0_22_37
*1031 FILLER_0_22_85
*1032 FILLER_0_23_134
*1033 FILLER_0_23_19
*1034 FILLER_0_23_3
*1035 FILLER_0_23_31
*1036 FILLER_0_23_43
*1037 FILLER_0_23_55
*1038 FILLER_0_23_72
*1039 FILLER_0_23_96
*1040 FILLER_0_24_100
*1041 FILLER_0_24_134
*1042 FILLER_0_24_141
*1043 FILLER_0_24_16
*1044 FILLER_0_24_29
*1045 FILLER_0_24_41
*1046 FILLER_0_24_53
*1047 FILLER_0_24_57
*1048 FILLER_0_24_73
*1049 FILLER_0_24_81
*1050 FILLER_0_24_9
*1051 FILLER_0_25_113
*1052 FILLER_0_25_121
*1053 FILLER_0_25_18
*1054 FILLER_0_25_30
*1055 FILLER_0_25_42
*1056 FILLER_0_25_54
*1057 FILLER_0_25_57
*1058 FILLER_0_25_84
*1059 FILLER_0_25_90
*1060 FILLER_0_26_106
*1061 FILLER_0_26_114
*1062 FILLER_0_26_141
*1063 FILLER_0_26_18
*1064 FILLER_0_26_26
*1065 FILLER_0_26_29
*1066 FILLER_0_26_41
*1067 FILLER_0_26_47
*1068 FILLER_0_26_63
*1069 FILLER_0_26_75
*1070 FILLER_0_26_83
*1071 FILLER_0_26_85
*1072 FILLER_0_27_105
*1073 FILLER_0_27_111
*1074 FILLER_0_27_113
*1075 FILLER_0_27_121
*1076 FILLER_0_27_19
*1077 FILLER_0_27_31
*1078 FILLER_0_27_43
*1079 FILLER_0_27_55
*1080 FILLER_0_27_57
*1081 FILLER_0_27_7
*1082 FILLER_0_28_105
*1083 FILLER_0_28_113
*1084 FILLER_0_28_141
*1085 FILLER_0_28_19
*1086 FILLER_0_28_27
*1087 FILLER_0_28_29
*1088 FILLER_0_28_41
*1089 FILLER_0_28_47
*1090 FILLER_0_28_63
*1091 FILLER_0_28_7
*1092 FILLER_0_28_80
*1093 FILLER_0_28_85
*1094 FILLER_0_28_89
*1095 FILLER_0_29_111
*1096 FILLER_0_29_144
*1097 FILLER_0_29_19
*1098 FILLER_0_29_31
*1099 FILLER_0_29_39
*1100 FILLER_0_29_57
*1101 FILLER_0_29_7
*1102 FILLER_0_29_73
*1103 FILLER_0_29_85
*1104 FILLER_0_29_89
*1105 FILLER_0_2_109
*1106 FILLER_0_2_121
*1107 FILLER_0_2_133
*1108 FILLER_0_2_139
*1109 FILLER_0_2_141
*1110 FILLER_0_2_145
*1111 FILLER_0_2_15
*1112 FILLER_0_2_27
*1113 FILLER_0_2_29
*1114 FILLER_0_2_3
*1115 FILLER_0_2_33
*1116 FILLER_0_2_38
*1117 FILLER_0_2_50
*1118 FILLER_0_2_62
*1119 FILLER_0_2_74
*1120 FILLER_0_2_82
*1121 FILLER_0_2_85
*1122 FILLER_0_2_97
*1123 FILLER_0_30_120
*1124 FILLER_0_30_141
*1125 FILLER_0_30_15
*1126 FILLER_0_30_27
*1127 FILLER_0_30_29
*1128 FILLER_0_30_3
*1129 FILLER_0_30_41
*1130 FILLER_0_30_46
*1131 FILLER_0_30_68
*1132 FILLER_0_30_80
*1133 FILLER_0_30_85
*1134 FILLER_0_30_97
*1135 FILLER_0_31_102
*1136 FILLER_0_31_128
*1137 FILLER_0_31_138
*1138 FILLER_0_31_19
*1139 FILLER_0_31_31
*1140 FILLER_0_31_49
*1141 FILLER_0_31_60
*1142 FILLER_0_31_7
*1143 FILLER_0_31_72
*1144 FILLER_0_31_94
*1145 FILLER_0_31_98
*1146 FILLER_0_32_114
*1147 FILLER_0_32_144
*1148 FILLER_0_32_19
*1149 FILLER_0_32_27
*1150 FILLER_0_32_29
*1151 FILLER_0_32_7
*1152 FILLER_0_32_92
*1153 FILLER_0_33_113
*1154 FILLER_0_33_135
*1155 FILLER_0_33_15
*1156 FILLER_0_33_27
*1157 FILLER_0_33_3
*1158 FILLER_0_33_39
*1159 FILLER_0_33_47
*1160 FILLER_0_33_55
*1161 FILLER_0_33_57
*1162 FILLER_0_33_63
*1163 FILLER_0_33_79
*1164 FILLER_0_33_85
*1165 FILLER_0_34_101
*1166 FILLER_0_34_113
*1167 FILLER_0_34_130
*1168 FILLER_0_34_138
*1169 FILLER_0_34_141
*1170 FILLER_0_34_19